# generated using pymatgen
data_Li9Mn2Co5O16
_symmetry_space_group_name_H-M   'P 1'
_cell_length_a   2.81254872
_cell_length_b   9.52643230
_cell_length_c   10.18145660
_cell_angle_alpha   107.21899877
_cell_angle_beta   97.96340575
_cell_angle_gamma   89.93998122
_symmetry_Int_Tables_number   1
_chemical_formula_structural   Li9Mn2Co5O16
_chemical_formula_sum   'Li9 Mn2 Co5 O16'
_cell_volume   257.82756995
_cell_formula_units_Z   1
loop_
 _symmetry_equiv_pos_site_id
 _symmetry_equiv_pos_as_xyz
  1  'x, y, z'
loop_
 _atom_site_type_symbol
 _atom_site_label
 _atom_site_symmetry_multiplicity
 _atom_site_fract_x
 _atom_site_fract_y
 _atom_site_fract_z
 _atom_site_occupancy
  Li  Li0  1  0.06266118  0.32398727  0.12583666  1
  Li  Li1  1  0.56401700  0.79934551  0.12676047  1
  Li  Li2  1  0.69756556  0.43893460  0.39349922  1
  Li  Li3  1  0.19543360  0.93718949  0.38148414  1
  Li  Li4  1  0.30868008  0.55124408  0.62363426  1
  Li  Li5  1  0.81154938  0.08118894  0.61827608  1
  Li  Li6  1  0.92919299  0.67376406  0.86788374  1
  Li  Li7  1  0.43554946  0.19952205  0.86931972  1
  Li  Li8  1  0.25640905  0.25779983  0.50896033  1
  Mn  Mn9  1  0.99836770  0.99907893  0.99527078  1
  Mn  Mn10  1  0.63155246  0.12605095  0.25920016  1
  Co  Co11  1  0.49896502  0.49955334  0.99969635  1
  Co  Co12  1  0.12433188  0.62310618  0.25082361  1
  Co  Co13  1  0.74905010  0.74969283  0.50016705  1
  Co  Co14  1  0.87204381  0.37465843  0.74523326  1
  Co  Co15  1  0.37339425  0.87518975  0.74774288  1
  O  O16  1  0.53001337  0.14046864  0.05880263  1
  O  O17  1  0.03156593  0.64179818  0.06526143  1
  O  O18  1  0.15201245  0.26209951  0.30130445  1
  O  O19  1  0.65595663  0.76395409  0.31466442  1
  O  O20  1  0.78604786  0.40769198  0.57411753  1
  O  O21  1  0.28146097  0.89108423  0.56569512  1
  O  O22  1  0.40698744  0.51826510  0.81672435  1
  O  O23  1  0.90725897  0.01827882  0.81558063  1
  O  O24  1  0.59228182  0.48273338  0.18612953  1
  O  O25  1  0.09184093  0.97961533  0.18016176  1
  O  O26  1  0.21706879  0.60909498  0.43592483  1
  O  O27  1  0.71186863  0.08814427  0.41852396  1
  O  O28  1  0.84304697  0.73790141  0.68662275  1
  O  O29  1  0.34679086  0.23361949  0.69340357  1
  O  O30  1  0.46885085  0.85565589  0.93592326  1
  O  O31  1  0.96818201  0.35928847  0.93737005  1
