# generated using pymatgen
data_LiCd
_symmetry_space_group_name_H-M   'P 1'
_cell_length_a   4.71275390
_cell_length_b   4.71275401
_cell_length_c   4.71275459
_cell_angle_alpha   60.00000319
_cell_angle_beta   60.00000252
_cell_angle_gamma   59.99998983
_symmetry_Int_Tables_number   1
_chemical_formula_structural   LiCd
_chemical_formula_sum   'Li2 Cd2'
_cell_volume   74.01322798
_cell_formula_units_Z   2
loop_
 _symmetry_equiv_pos_site_id
 _symmetry_equiv_pos_as_xyz
  1  'x, y, z'
loop_
 _atom_site_type_symbol
 _atom_site_label
 _atom_site_symmetry_multiplicity
 _atom_site_fract_x
 _atom_site_fract_y
 _atom_site_fract_z
 _atom_site_occupancy
  Li  Li0  1  0.62500000  0.62500000  0.62500000  1
  Li  Li1  1  0.37500000  0.37500000  0.37500000  1
  Cd  Cd2  1  0.12500000  0.12500000  0.12500000  1
  Cd  Cd3  1  0.87500000  0.87500000  0.87500000  1
