# generated using pymatgen
data_Li2Mg2(SO4)3
_symmetry_space_group_name_H-M   'P 1'
_cell_length_a   8.52547599
_cell_length_b   8.68694006
_cell_length_c   12.12013874
_cell_angle_alpha   90.00000000
_cell_angle_beta   90.00000000
_cell_angle_gamma   90.00000000
_symmetry_Int_Tables_number   1
_chemical_formula_structural   Li2Mg2(SO4)3
_chemical_formula_sum   'Li8 Mg8 S12 O48'
_cell_volume   897.62109789
_cell_formula_units_Z   4
loop_
 _symmetry_equiv_pos_site_id
 _symmetry_equiv_pos_as_xyz
  1  'x, y, z'
loop_
 _atom_site_type_symbol
 _atom_site_label
 _atom_site_symmetry_multiplicity
 _atom_site_fract_x
 _atom_site_fract_y
 _atom_site_fract_z
 _atom_site_occupancy
  Li  Li0  1  0.28627912  0.77624138  0.68128663  1
  Li  Li1  1  0.28627912  0.72375862  0.31871337  1
  Li  Li2  1  0.21372088  0.27624138  0.81871337  1
  Li  Li3  1  0.21372088  0.22375862  0.18128663  1
  Li  Li4  1  0.71372088  0.22375862  0.31871337  1
  Li  Li5  1  0.71372088  0.27624138  0.68128663  1
  Li  Li6  1  0.78627912  0.72375862  0.18128663  1
  Li  Li7  1  0.78627912  0.77624138  0.81871337  1
  Mg  Mg8  1  0.24569963  0.04107077  0.38924293  1
  Mg  Mg9  1  0.24569963  0.45892923  0.61075707  1
  Mg  Mg10  1  0.25430037  0.95892923  0.88924293  1
  Mg  Mg11  1  0.25430037  0.54107077  0.11075707  1
  Mg  Mg12  1  0.75430037  0.54107077  0.38924293  1
  Mg  Mg13  1  0.75430037  0.95892923  0.61075707  1
  Mg  Mg14  1  0.74569963  0.04107077  0.11075707  1
  Mg  Mg15  1  0.74569963  0.45892923  0.88924293  1
  S  S16  1  0.95264464  0.25000000  0.50000000  1
  S  S17  1  0.54735536  0.75000000  -0.00000000  1
  S  S18  1  0.60543118  0.60414204  0.64842178  1
  S  S19  1  0.45264464  0.25000000  -0.00000000  1
  S  S20  1  0.04735536  0.75000000  0.50000000  1
  S  S21  1  0.60543118  0.89585796  0.35157822  1
  S  S22  1  0.89456882  0.10414204  0.85157822  1
  S  S23  1  0.89456882  0.39585796  0.14842178  1
  S  S24  1  0.39456882  0.39585796  0.35157822  1
  S  S25  1  0.39456882  0.10414204  0.64842178  1
  S  S26  1  0.10543118  0.89585796  0.14842178  1
  S  S27  1  0.10543118  0.60414204  0.85157822  1
  O  O28  1  0.33210307  0.25607309  0.68155678  1
  O  O29  1  0.16925312  0.48467679  0.77705969  1
  O  O30  1  0.16925312  0.01532321  0.22294031  1
  O  O31  1  0.33074688  0.98467679  0.72294031  1
  O  O32  1  0.33074688  0.51532321  0.27705969  1
  O  O33  1  0.83074688  0.51532321  0.22294031  1
  O  O34  1  0.83074688  0.98467679  0.77705969  1
  O  O35  1  0.66925312  0.01532321  0.27705969  1
  O  O36  1  0.66925312  0.48467679  0.72294031  1
  O  O37  1  0.14920543  0.56807834  0.96415152  1
  O  O38  1  0.14920543  0.93192166  0.03584848  1
  O  O39  1  0.35079457  0.06807834  0.53584848  1
  O  O40  1  0.35079457  0.43192166  0.46415152  1
  O  O41  1  0.85079457  0.43192166  0.03584848  1
  O  O42  1  0.85079457  0.06807834  0.96415152  1
  O  O43  1  0.64920543  0.93192166  0.46415152  1
  O  O44  1  0.64920543  0.56807834  0.53584848  1
  O  O45  1  0.16789693  0.75607309  0.81844322  1
  O  O46  1  0.83210307  0.24392691  0.18155678  1
  O  O47  1  0.33210307  0.24392691  0.31844322  1
  O  O48  1  0.15109096  0.66881734  0.57883090  1
  O  O49  1  0.15109096  0.83118266  0.42116910  1
  O  O50  1  0.34890904  0.16881734  0.92116910  1
  O  O51  1  0.34890904  0.33118266  0.07883090  1
  O  O52  1  0.84890904  0.33118266  0.42116910  1
  O  O53  1  0.84890904  0.16881734  0.57883090  1
  O  O54  1  0.65109096  0.83118266  0.07883090  1
  O  O55  1  0.65109096  0.66881734  0.92116910  1
  O  O56  1  0.95357601  0.85915407  0.56219686  1
  O  O57  1  0.95357601  0.64084593  0.43780314  1
  O  O58  1  0.54642399  0.35915407  0.93780314  1
  O  O59  1  0.54642399  0.14084593  0.06219686  1
  O  O60  1  0.04642399  0.14084593  0.43780314  1
  O  O61  1  0.04642399  0.35915407  0.56219686  1
  O  O62  1  0.45357601  0.64084593  0.06219686  1
  O  O63  1  0.45357601  0.85915407  0.93780314  1
  O  O64  1  0.43324164  0.60745753  0.65954369  1
  O  O65  1  0.43324164  0.89254247  0.34045631  1
  O  O66  1  0.06675836  0.10745753  0.84045631  1
  O  O67  1  0.06675836  0.39254247  0.15954369  1
  O  O68  1  0.56675836  0.39254247  0.34045631  1
  O  O69  1  0.56675836  0.10745753  0.65954369  1
  O  O70  1  0.93324164  0.89254247  0.15954369  1
  O  O71  1  0.93324164  0.60745753  0.84045631  1
  O  O72  1  0.66789693  0.75607309  0.68155678  1
  O  O73  1  0.66789693  0.74392691  0.31844322  1
  O  O74  1  0.83210307  0.25607309  0.81844322  1
  O  O75  1  0.16789693  0.74392691  0.18155678  1
