# generated using pymatgen
data_Li3GaF6
_symmetry_space_group_name_H-M   'P 1'
_cell_length_a   8.27490138
_cell_length_b   8.27490138
_cell_length_c   9.88124522
_cell_angle_alpha   85.21215421
_cell_angle_beta   85.21215421
_cell_angle_gamma   61.99329667
_symmetry_Int_Tables_number   1
_chemical_formula_structural   Li3GaF6
_chemical_formula_sum   'Li18 Ga6 F36'
_cell_volume   594.53387448
_cell_formula_units_Z   6
loop_
 _symmetry_equiv_pos_site_id
 _symmetry_equiv_pos_as_xyz
  1  'x, y, z'
loop_
 _atom_site_type_symbol
 _atom_site_label
 _atom_site_symmetry_multiplicity
 _atom_site_fract_x
 _atom_site_fract_y
 _atom_site_fract_z
 _atom_site_occupancy
  Li  Li0  1  0.87365936  0.46415807  0.45000512  1
  Li  Li1  1  0.53584193  0.12634064  0.04999488  1
  Li  Li2  1  0.12634064  0.53584193  0.54999488  1
  Li  Li3  1  0.46415807  0.87365936  0.95000512  1
  Li  Li4  1  0.70790880  0.00714110  0.77003879  1
  Li  Li5  1  0.99285890  0.29209120  0.72996121  1
  Li  Li6  1  0.18792237  0.81207763  0.75000000  1
  Li  Li7  1  0.81207763  0.18792237  0.25000000  1
  Li  Li8  1  0.65588372  0.93989508  0.43276118  1
  Li  Li9  1  0.06010492  0.34411628  0.06723882  1
  Li  Li10  1  0.34411628  0.06010492  0.56723882  1
  Li  Li11  1  0.93989508  0.65588372  0.93276118  1
  Li  Li12  1  0.32769898  0.63238287  0.03287813  1
  Li  Li13  1  0.36761713  0.67230102  0.46712187  1
  Li  Li14  1  0.67230102  0.36761713  0.96712187  1
  Li  Li15  1  0.63238287  0.32769898  0.53287813  1
  Li  Li16  1  0.29209120  0.99285890  0.22996121  1
  Li  Li17  1  0.00714110  0.70790880  0.27003879  1
  Ga  Ga18  1  0.66448023  0.65840582  0.20699667  1
  Ga  Ga19  1  0.34159418  0.33551977  0.29300333  1
  Ga  Ga20  1  0.33551977  0.34159418  0.79300333  1
  Ga  Ga21  1  0.65840582  0.66448023  0.70699667  1
  Ga  Ga22  1  -0.00000000  0.00000000  0.50000000  1
  Ga  Ga23  1  -0.00000000  0.00000000  0.00000000  1
  F  F24  1  0.24205752  0.56087902  0.19139981  1
  F  F25  1  0.22746981  0.27237945  0.65736041  1
  F  F26  1  0.27237945  0.22746981  0.15736041  1
  F  F27  1  0.77253019  0.72762055  0.34263959  1
  F  F28  1  0.75922377  0.08570017  0.93700702  1
  F  F29  1  0.91429983  0.24077623  0.56299298  1
  F  F30  1  0.24077623  0.91429983  0.06299298  1
  F  F31  1  0.08570017  0.75922377  0.43700702  1
  F  F32  1  0.72762055  0.77253019  0.84263959  1
  F  F33  1  0.76050022  0.09309893  0.43347289  1
  F  F34  1  0.09309893  0.76050022  0.93347289  1
  F  F35  1  0.23949978  0.90690107  0.56652711  1
  F  F36  1  0.43912098  0.75794248  0.30860019  1
  F  F37  1  0.42753515  0.41207738  0.93434107  1
  F  F38  1  0.41207738  0.42753515  0.43434107  1
  F  F39  1  0.57246485  0.58792262  0.06565893  1
  F  F40  1  0.58361281  0.89610415  0.61056999  1
  F  F41  1  0.10389585  0.41638719  0.88943001  1
  F  F42  1  0.41638719  0.10389585  0.38943001  1
  F  F43  1  0.89610415  0.58361281  0.11056999  1
  F  F44  1  0.92069914  0.93239671  0.16831458  1
  F  F45  1  0.06760329  0.07930086  0.33168542  1
  F  F46  1  0.07930086  0.06760329  0.83168542  1
  F  F47  1  0.93239671  0.92069914  0.66831458  1
  F  F48  1  0.75794248  0.43912098  0.80860019  1
  F  F49  1  0.56087902  0.24205752  0.69139981  1
  F  F50  1  0.10729315  0.42826590  0.38625857  1
  F  F51  1  0.58792262  0.57246485  0.56565893  1
  F  F52  1  0.89270685  0.57173410  0.61374143  1
  F  F53  1  0.42826590  0.10729315  0.88625857  1
  F  F54  1  0.24894393  0.56951008  0.69316987  1
  F  F55  1  0.43048992  0.75105607  0.80683013  1
  F  F56  1  0.75105607  0.43048992  0.30683013  1
  F  F57  1  0.56951008  0.24894393  0.19316987  1
  F  F58  1  0.90690107  0.23949978  0.06652711  1
  F  F59  1  0.57173410  0.89270685  0.11374143  1
