# generated using pymatgen
data_KLi3Zr2(Si2O5)6
_symmetry_space_group_name_H-M   'P 1'
_cell_length_a   10.25257303
_cell_length_b   10.25257303
_cell_length_c   14.56667500
_cell_angle_alpha   90.00000000
_cell_angle_beta   90.00000000
_cell_angle_gamma   120.00000667
_symmetry_Int_Tables_number   1
_chemical_formula_structural   KLi3Zr2(Si2O5)6
_chemical_formula_sum   'K2 Li6 Zr4 Si24 O60'
_cell_volume   1326.04046335
_cell_formula_units_Z   2
loop_
 _symmetry_equiv_pos_site_id
 _symmetry_equiv_pos_as_xyz
  1  'x, y, z'
loop_
 _atom_site_type_symbol
 _atom_site_label
 _atom_site_symmetry_multiplicity
 _atom_site_fract_x
 _atom_site_fract_y
 _atom_site_fract_z
 _atom_site_occupancy
  K  K0  1  0.00000000  0.00000000  0.75000000  1
  K  K1  1  0.00000000  0.00000000  0.25000000  1
  Li  Li2  1  0.00000000  0.50000000  0.25000000  1
  Li  Li3  1  0.50000000  0.50000000  0.75000000  1
  Li  Li4  1  0.50000000  0.00000000  0.75000000  1
  Li  Li5  1  0.00000000  0.50000000  0.75000000  1
  Li  Li6  1  0.50000000  0.50000000  0.25000000  1
  Li  Li7  1  0.50000000  0.00000000  0.25000000  1
  Zr  Zr8  1  0.66666700  0.33333300  0.75000000  1
  Zr  Zr9  1  0.33333300  0.66666700  0.75000000  1
  Zr  Zr10  1  0.66666700  0.33333300  0.25000000  1
  Zr  Zr11  1  0.33333300  0.66666700  0.25000000  1
  Si  Si12  1  0.88737800  0.23906900  0.60834800  1
  Si  Si13  1  0.76093100  0.64830900  0.60834800  1
  Si  Si14  1  0.35169100  0.11262200  0.60834800  1
  Si  Si15  1  0.64830900  0.88737800  0.60834800  1
  Si  Si16  1  0.11262200  0.35169100  0.89165200  1
  Si  Si17  1  0.11262200  0.76093100  0.60834800  1
  Si  Si18  1  0.23906900  0.35169100  0.60834800  1
  Si  Si19  1  0.76093100  0.11262200  0.89165200  1
  Si  Si20  1  0.35169100  0.23906900  0.89165200  1
  Si  Si21  1  0.64830900  0.76093100  0.89165200  1
  Si  Si22  1  0.23906900  0.88737800  0.89165200  1
  Si  Si23  1  0.88737800  0.64830900  0.89165200  1
  Si  Si24  1  0.11262200  0.76093100  0.39165200  1
  Si  Si25  1  0.23906900  0.35169100  0.39165200  1
  Si  Si26  1  0.64830900  0.88737800  0.39165200  1
  Si  Si27  1  0.11262200  0.35169100  0.10834800  1
  Si  Si28  1  0.88737800  0.64830900  0.10834800  1
  Si  Si29  1  0.88737800  0.23906900  0.39165200  1
  Si  Si30  1  0.76093100  0.64830900  0.39165200  1
  Si  Si31  1  0.23906900  0.88737800  0.10834800  1
  Si  Si32  1  0.64830900  0.76093100  0.10834800  1
  Si  Si33  1  0.35169100  0.23906900  0.10834800  1
  Si  Si34  1  0.76093100  0.11262200  0.10834800  1
  Si  Si35  1  0.35169100  0.11262200  0.39165200  1
  O  O36  1  0.21759300  0.27691300  0.13235300  1
  O  O37  1  0.65970300  0.15646300  0.82794100  1
  O  O38  1  0.49676000  0.34029700  0.82794100  1
  O  O39  1  0.50324000  0.65970300  0.82794100  1
  O  O40  1  0.34029700  0.84353700  0.82794100  1
  O  O41  1  0.84353700  0.50324000  0.82794100  1
  O  O42  1  0.15646300  0.65970300  0.32794100  1
  O  O43  1  0.34029700  0.49676000  0.32794100  1
  O  O44  1  0.50324000  0.84353700  0.32794100  1
  O  O45  1  0.49676000  0.15646300  0.32794100  1
  O  O46  1  0.84353700  0.50324000  0.17205900  1
  O  O47  1  0.84353700  0.34029700  0.32794100  1
  O  O48  1  0.65970300  0.50324000  0.32794100  1
  O  O49  1  0.34029700  0.84353700  0.17205900  1
  O  O50  1  0.50324000  0.65970300  0.17205900  1
  O  O51  1  0.49676000  0.34029700  0.17205900  1
  O  O52  1  0.65970300  0.15646300  0.17205900  1
  O  O53  1  0.05931900  0.27691300  0.63235300  1
  O  O54  1  0.78240700  0.05931900  0.63235300  1
  O  O55  1  0.94068100  0.72308700  0.63235300  1
  O  O56  1  0.27691300  0.21759300  0.63235300  1
  O  O57  1  0.72308700  0.78240700  0.63235300  1
  O  O58  1  0.21759300  0.27691300  0.86764700  1
  O  O59  1  0.21759300  0.94068100  0.63235300  1
  O  O60  1  0.84353700  0.34029700  0.67205900  1
  O  O61  1  0.15646300  0.65970300  0.67205900  1
  O  O62  1  0.15646300  0.49676000  0.82794100  1
  O  O63  1  0.50324000  0.84353700  0.67205900  1
  O  O64  1  0.49676000  0.15646300  0.67205900  1
  O  O65  1  0.65970300  0.50324000  0.67205900  1
  O  O66  1  0.12681600  0.39564100  0.00000000  1
  O  O67  1  0.73117500  0.12681600  0.00000000  1
  O  O68  1  0.39564100  0.26882500  0.00000000  1
  O  O69  1  0.60435900  0.73117500  0.00000000  1
  O  O70  1  0.26882500  0.87318400  0.00000000  1
  O  O71  1  0.73117500  0.60435900  0.50000000  1
  O  O72  1  0.87318400  0.26882500  0.50000000  1
  O  O73  1  0.87318400  0.60435900  0.00000000  1
  O  O74  1  0.39564100  0.12681600  0.50000000  1
  O  O75  1  0.60435900  0.87318400  0.50000000  1
  O  O76  1  0.26882500  0.39564100  0.50000000  1
  O  O77  1  0.12681600  0.73117500  0.50000000  1
  O  O78  1  0.34029700  0.49676000  0.67205900  1
  O  O79  1  0.94068100  0.21759300  0.13235300  1
  O  O80  1  0.27691300  0.05931900  0.13235300  1
  O  O81  1  0.72308700  0.94068100  0.13235300  1
  O  O82  1  0.05931900  0.78240700  0.13235300  1
  O  O83  1  0.94068100  0.72308700  0.36764700  1
  O  O84  1  0.78240700  0.05931900  0.36764700  1
  O  O85  1  0.78240700  0.72308700  0.13235300  1
  O  O86  1  0.27691300  0.21759300  0.36764700  1
  O  O87  1  0.72308700  0.78240700  0.36764700  1
  O  O88  1  0.05931900  0.27691300  0.36764700  1
  O  O89  1  0.21759300  0.94068100  0.36764700  1
  O  O90  1  0.78240700  0.72308700  0.86764700  1
  O  O91  1  0.05931900  0.78240700  0.86764700  1
  O  O92  1  0.72308700  0.94068100  0.86764700  1
  O  O93  1  0.27691300  0.05931900  0.86764700  1
  O  O94  1  0.94068100  0.21759300  0.86764700  1
  O  O95  1  0.15646300  0.49676000  0.17205900  1
