# generated using pymatgen
data_Li3In2
_symmetry_space_group_name_H-M   'P 1'
_cell_length_a   5.58052981
_cell_length_b   5.58052912
_cell_length_c   5.58052843
_cell_angle_alpha   50.13518362
_cell_angle_beta   50.13518863
_cell_angle_gamma   50.13518665
_symmetry_Int_Tables_number   1
_chemical_formula_structural   Li3In2
_chemical_formula_sum   'Li3 In2'
_cell_volume   94.25414153
_cell_formula_units_Z   1
loop_
 _symmetry_equiv_pos_site_id
 _symmetry_equiv_pos_as_xyz
  1  'x, y, z'
loop_
 _atom_site_type_symbol
 _atom_site_label
 _atom_site_symmetry_multiplicity
 _atom_site_fract_x
 _atom_site_fract_y
 _atom_site_fract_z
 _atom_site_occupancy
  Li  Li0  1  0.59568523  0.59568523  0.59568523  1
  Li  Li1  1  0.40431477  0.40431477  0.40431477  1
  Li  Li2  1  -0.00000000  -0.00000000  0.00000000  1
  In  In3  1  0.20689380  0.20689380  0.20689380  1
  In  In4  1  0.79310620  0.79310620  0.79310620  1
