# generated using pymatgen
data_Li6Bi3P8O29
_symmetry_space_group_name_H-M   'P 1'
_cell_length_a   10.36758820
_cell_length_b   10.36758820
_cell_length_c   14.28310262
_cell_angle_alpha   89.45216572
_cell_angle_beta   89.45216572
_cell_angle_gamma   59.89563960
_symmetry_Int_Tables_number   1
_chemical_formula_structural   Li6Bi3P8O29
_chemical_formula_sum   'Li12 Bi6 P16 O58'
_cell_volume   1328.08097640
_cell_formula_units_Z   2
loop_
 _symmetry_equiv_pos_site_id
 _symmetry_equiv_pos_as_xyz
  1  'x, y, z'
loop_
 _atom_site_type_symbol
 _atom_site_label
 _atom_site_symmetry_multiplicity
 _atom_site_fract_x
 _atom_site_fract_y
 _atom_site_fract_z
 _atom_site_occupancy
  Li  Li0  1  0.69057600  0.08942200  0.44365700  1
  Li  Li1  1  0.31544700  0.78124400  0.06125400  1
  Li  Li2  1  0.31095900  0.91033000  0.55174900  1
  Li  Li3  1  0.78124400  0.31544700  0.56125400  1
  Li  Li4  1  0.91033000  0.31095900  0.05174900  1
  Li  Li5  1  0.08937000  0.21800800  0.44222300  1
  Li  Li6  1  0.79018100  0.92000900  0.05377500  1
  Li  Li7  1  0.33795000  0.33719900  0.12293100  1
  Li  Li8  1  0.33719900  0.33795000  0.62293100  1
  Li  Li9  1  0.08942200  0.69057600  0.94365700  1
  Li  Li10  1  0.92000900  0.79018100  0.55377500  1
  Li  Li11  1  0.21800800  0.08937000  0.94222300  1
  Bi  Bi12  1  0.43123200  0.57004200  0.25938400  1
  Bi  Bi13  1  0.57004200  0.43123200  0.75938400  1
  Bi  Bi14  1  0.43426500  0.99347100  0.75266200  1
  Bi  Bi15  1  0.57219000  0.99440300  0.25037400  1
  Bi  Bi16  1  0.99347100  0.43426500  0.25266200  1
  Bi  Bi17  1  0.99440300  0.57219000  0.75037400  1
  P  P18  1  0.09398200  0.23006300  0.65389100  1
  P  P19  1  0.91934500  0.30889400  0.83998600  1
  P  P20  1  0.66826300  0.66532100  0.60843000  1
  P  P21  1  0.66532100  0.66826300  0.10843000  1
  P  P22  1  0.76992800  0.30698500  0.34882200  1
  P  P23  1  0.30889400  0.91934500  0.33998600  1
  P  P24  1  0.68515400  0.22916500  0.16160700  1
  P  P25  1  0.68243000  0.09045000  0.65698800  1
  P  P26  1  0.22916500  0.68515400  0.66160700  1
  P  P27  1  0.33222600  0.32572300  0.38829800  1
  P  P28  1  0.32572300  0.33222600  0.88829800  1
  P  P29  1  0.09045000  0.68243000  0.15698800  1
  P  P30  1  0.91773300  0.77138700  0.34381000  1
  P  P31  1  0.23006300  0.09398200  0.15389100  1
  P  P32  1  0.77138700  0.91773300  0.84381000  1
  P  P33  1  0.30698500  0.76992800  0.84882200  1
  O  O34  1  0.87342100  0.65219500  0.32675900  1
  O  O35  1  0.47169900  0.65497500  0.82910700  1
  O  O36  1  0.29115200  0.92684700  0.84776400  1
  O  O37  1  0.26172700  0.99279400  0.07087600  1
  O  O38  1  0.29393700  0.77909900  0.34408200  1
  O  O39  1  0.25863300  0.76994700  0.58847400  1
  O  O40  1  0.76315400  0.20873900  0.26410200  1
  O  O41  1  0.74622300  0.24380900  0.43900900  1
  O  O42  1  0.68693600  0.23731200  0.65097300  1
  O  O43  1  0.77601900  0.00526800  0.74932500  1
  O  O44  1  0.75330700  0.00607200  0.92978800  1
  O  O45  1  0.69174600  0.07745400  0.14820700  1
  O  O46  1  0.51772300  0.34953800  0.17355600  1
  O  O47  1  0.46926900  0.31689000  0.84245200  1
  O  O48  1  0.24380900  0.74622300  0.93900900  1
  O  O49  1  0.34953800  0.51772300  0.67355600  1
  O  O50  1  0.20873900  0.76315400  0.76410200  1
  O  O51  1  0.51709900  0.13208800  0.67103000  1
  O  O52  1  0.48387500  0.18354600  0.35839800  1
  O  O53  1  0.23731200  0.68693600  0.15097300  1
  O  O54  1  0.31689000  0.46926900  0.34245200  1
  O  O55  1  0.33452300  0.33106800  0.49403800  1
  O  O56  1  0.33106800  0.33452300  0.99403800  1
  O  O57  1  0.18354600  0.48387500  0.85839800  1
  O  O58  1  0.07745400  0.69174600  0.64820700  1
  O  O59  1  0.35015000  0.13926300  0.17099800  1
  O  O60  1  0.31147200  0.19391800  0.85793100  1
  O  O61  1  0.00526800  0.77601900  0.24932500  1
  O  O62  1  0.13208800  0.51709900  0.17103000  1
  O  O63  1  0.00607200  0.75330700  0.42978800  1
  O  O64  1  0.99502200  0.75526600  0.07180400  1
  O  O65  1  0.19391800  0.31147200  0.35793100  1
  O  O66  1  0.92655700  0.77147100  0.84644700  1
  O  O67  1  0.13926300  0.35015000  0.67099800  1
  O  O68  1  0.23867500  0.07820900  0.64362500  1
  O  O69  1  0.75526600  0.99502200  0.57180400  1
  O  O70  1  0.24080600  0.01199100  0.42676900  1
  O  O71  1  0.77147100  0.92655700  0.34644700  1
  O  O72  1  0.21598300  0.01424300  0.24823000  1
  O  O73  1  0.65497500  0.47169900  0.32910700  1
  O  O74  1  0.07820900  0.23867500  0.14362500  1
  O  O75  1  0.80696000  0.67720800  0.63909000  1
  O  O76  1  0.01199100  0.24080600  0.92676900  1
  O  O77  1  0.99279400  0.26172700  0.57087600  1
  O  O78  1  0.01424300  0.21598300  0.74823000  1
  O  O79  1  0.87205100  0.47377400  0.82306200  1
  O  O80  1  0.65219500  0.87342100  0.82675900  1
  O  O81  1  0.67720800  0.80696000  0.13909000  1
  O  O82  1  0.92684700  0.29115200  0.34776400  1
  O  O83  1  0.80647300  0.51972100  0.14057300  1
  O  O84  1  0.66580000  0.66543000  0.50136900  1
  O  O85  1  0.51706800  0.67884100  0.14391800  1
  O  O86  1  0.67884100  0.51706800  0.64391800  1
  O  O87  1  0.77909900  0.29393700  0.84408200  1
  O  O88  1  0.51972100  0.80647300  0.64057300  1
  O  O89  1  0.47377400  0.87205100  0.32306200  1
  O  O90  1  0.76994700  0.25863300  0.08847400  1
  O  O91  1  0.66543000  0.66580000  0.00136900  1
