# generated using pymatgen
data_LiUF5
_symmetry_space_group_name_H-M   'P 1'
_cell_length_a   10.96780953
_cell_length_b   10.96780953
_cell_length_c   10.96780953
_cell_angle_alpha   95.01922653
_cell_angle_beta   95.01922653
_cell_angle_gamma   145.59051357
_symmetry_Int_Tables_number   1
_chemical_formula_structural   LiUF5
_chemical_formula_sum   'Li8 U8 F40'
_cell_volume   712.20757833
_cell_formula_units_Z   8
loop_
 _symmetry_equiv_pos_site_id
 _symmetry_equiv_pos_as_xyz
  1  'x, y, z'
loop_
 _atom_site_type_symbol
 _atom_site_label
 _atom_site_symmetry_multiplicity
 _atom_site_fract_x
 _atom_site_fract_y
 _atom_site_fract_z
 _atom_site_occupancy
  Li  Li0  1  0.68388566  0.16876887  0.64770006  1
  Li  Li1  1  0.28618560  0.43388566  0.01511680  1
  Li  Li2  1  0.41876887  0.27106880  0.98488320  1
  Li  Li3  1  0.52106880  0.03618560  0.35229994  1
  Li  Li4  1  0.56611434  0.58123113  0.85229994  1
  Li  Li5  1  0.96381440  0.31611434  0.48488320  1
  Li  Li6  1  0.83123113  0.47893120  0.51511680  1
  Li  Li7  1  0.72893120  0.71381440  0.14770006  1
  U  U8  1  0.32024726  0.68752499  0.75487735  1
  U  U9  1  0.81536990  0.07024726  0.13272326  1
  U  U10  1  0.93752499  0.68264764  0.86727674  1
  U  U11  1  0.93264764  0.56536990  0.24512265  1
  U  U12  1  0.92975274  0.06247501  0.74512265  1
  U  U13  1  0.43463010  0.67975274  0.36727674  1
  U  U14  1  0.31247501  0.06735236  0.63272326  1
  U  U15  1  0.31735236  0.18463010  0.25487735  1
  F  F16  1  0.94480631  0.78421959  0.23364604  1
  F  F17  1  0.96116027  0.69480631  0.66058671  1
  F  F18  1  0.03421959  0.30057355  0.33941329  1
  F  F19  1  0.55057355  0.71116027  0.76635396  1
  F  F20  1  0.30519369  0.96578041  0.26635396  1
  F  F21  1  0.28883973  0.05519369  0.83941329  1
  F  F22  1  0.21578041  0.44942645  0.16058671  1
  F  F23  1  0.69942645  0.03883973  0.73364604  1
  F  F24  1  0.70169563  0.83484302  0.27868815  1
  F  F25  1  0.67300748  0.45169563  0.36685261  1
  F  F26  1  0.08484302  0.30615487  0.63314739  1
  F  F27  1  0.55615487  0.42300748  0.72131185  1
  F  F28  1  0.54830437  0.91515698  0.22131185  1
  F  F29  1  0.57699252  0.29830437  0.13314739  1
  F  F30  1  0.16515698  0.44384513  0.86685261  1
  F  F31  1  0.69384513  0.32699252  0.77868815  1
  F  F32  1  0.01611273  0.05707206  0.17274639  1
  F  F33  1  0.09336634  0.76611273  0.45904067  1
  F  F34  1  0.30707206  0.63432567  0.54095933  1
  F  F35  1  0.88432567  0.84336634  0.82725361  1
  F  F36  1  0.23388727  0.69292794  0.32725361  1
  F  F37  1  0.15663366  0.98388727  0.04095933  1
  F  F38  1  0.94292794  0.11567433  0.95904067  1
  F  F39  1  0.36567433  0.90663366  0.67274639  1
  F  F40  1  0.39442998  0.44226045  0.36141223  1
  F  F41  1  0.28301776  0.14442998  0.45216954  1
  F  F42  1  0.69226045  0.83084822  0.54783046  1
  F  F43  1  0.08084822  0.03301776  0.63858777  1
  F  F44  1  0.85557002  0.30773955  0.13858777  1
  F  F45  1  0.96698224  0.60557002  0.04783046  1
  F  F46  1  0.55773955  0.91915178  0.95216954  1
  F  F47  1  0.16915178  0.71698224  0.86141223  1
  F  F48  1  0.43620958  0.40588488  0.12988280  1
  F  F49  1  0.55632678  0.18620958  0.53032470  1
  F  F50  1  0.65588488  0.02600208  0.46967530  1
  F  F51  1  0.27600208  0.30632678  0.87011720  1
  F  F52  1  0.81379042  0.34411512  0.37011720  1
  F  F53  1  0.69367322  0.56379042  0.96967530  1
  F  F54  1  0.59411512  0.72399792  0.03032470  1
  F  F55  1  0.97399792  0.44367322  0.62988280  1
