# generated using pymatgen
data_Li4H4Rh
_symmetry_space_group_name_H-M   'P 1'
_cell_length_a   4.08885724
_cell_length_b   4.84987569
_cell_length_c   4.84987744
_cell_angle_alpha   79.76428528
_cell_angle_beta   65.06800057
_cell_angle_gamma   65.06799003
_symmetry_Int_Tables_number   1
_chemical_formula_structural   Li4H4Rh
_chemical_formula_sum   'Li4 H4 Rh1'
_cell_volume   79.08509909
_cell_formula_units_Z   1
loop_
 _symmetry_equiv_pos_site_id
 _symmetry_equiv_pos_as_xyz
  1  'x, y, z'
loop_
 _atom_site_type_symbol
 _atom_site_label
 _atom_site_symmetry_multiplicity
 _atom_site_fract_x
 _atom_site_fract_y
 _atom_site_fract_z
 _atom_site_occupancy
  Li  Li0  1  0.61424676  0.16529362  0.60621286  1
  Li  Li1  1  0.38575324  0.83470638  0.39378714  1
  Li  Li2  1  0.22045962  0.39378714  0.16529362  1
  Li  Li3  1  0.77954038  0.60621286  0.83470638  1
  H  H4  1  0.93370808  0.80117000  0.33141585  1
  H  H5  1  0.06629192  0.19883000  0.66858415  1
  H  H6  1  0.26512393  0.66858415  0.80117000  1
  H  H7  1  0.73487607  0.33141585  0.19883000  1
  Rh  Rh8  1  -0.00000000  0.00000000  -0.00000000  1
