# generated using pymatgen
data_Li3Zr4F19
_symmetry_space_group_name_H-M   'P 1'
_cell_length_a   5.39835041
_cell_length_b   10.77417416
_cell_length_c   12.67888682
_cell_angle_alpha   107.20222906
_cell_angle_beta   92.43543218
_cell_angle_gamma   103.03013477
_symmetry_Int_Tables_number   1
_chemical_formula_structural   Li3Zr4F19
_chemical_formula_sum   'Li6 Zr8 F38'
_cell_volume   681.57426424
_cell_formula_units_Z   2
loop_
 _symmetry_equiv_pos_site_id
 _symmetry_equiv_pos_as_xyz
  1  'x, y, z'
loop_
 _atom_site_type_symbol
 _atom_site_label
 _atom_site_symmetry_multiplicity
 _atom_site_fract_x
 _atom_site_fract_y
 _atom_site_fract_z
 _atom_site_occupancy
  Li  Li0  1  0.71474952  0.74140843  0.48904306  1
  Li  Li1  1  0.40169587  0.50184468  0.20170679  1
  Li  Li2  1  0.59830413  0.49815532  0.79829321  1
  Li  Li3  1  0.47588218  0.16210308  0.05814689  1
  Li  Li4  1  0.52411782  0.83789692  0.94185311  1
  Li  Li5  1  0.28525048  0.25859157  0.51095694  1
  Zr  Zr6  1  0.86151779  0.38412531  0.36608783  1
  Zr  Zr7  1  0.13848221  0.61587469  0.63391217  1
  Zr  Zr8  1  0.89887969  0.05297403  0.20811494  1
  Zr  Zr9  1  0.10112031  0.94702597  0.79188506  1
  Zr  Zr10  1  0.93437887  0.66183030  0.05318754  1
  Zr  Zr11  1  0.06562113  0.33816970  0.94681246  1
  Zr  Zr12  1  0.66664143  0.12531900  0.62945000  1
  Zr  Zr13  1  0.33335857  0.87468100  0.37055000  1
  F  F14  1  0.83393192  0.24921388  0.78610082  1
  F  F15  1  0.16606808  0.75078612  0.21389918  1
  F  F16  1  0.63247342  0.45263409  0.28730553  1
  F  F17  1  0.34756863  0.41220554  0.87150506  1
  F  F18  1  0.65243137  0.58779446  0.12849494  1
  F  F19  1  0.30258493  0.32154741  0.06572563  1
  F  F20  1  0.69741507  0.67845259  0.93427437  1
  F  F21  1  0.36752658  0.54736591  0.71269447  1
  F  F22  1  0.36565856  0.06856080  0.49539125  1
  F  F23  1  0.63434144  0.93143920  0.50460875  1
  F  F24  1  0.50132360  0.27691919  0.65185290  1
  F  F25  1  0.49867640  0.72308081  0.34814710  1
  F  F26  1  0.86363000  0.56963971  0.48805612  1
  F  F27  1  0.13637000  0.43036029  0.51194388  1
  F  F28  1  0.66303151  0.00509265  0.07098867  1
  F  F29  1  0.33696849  0.99490735  0.92901133  1
  F  F30  1  0.95789250  0.78100246  0.64579032  1
  F  F31  1  0.04210750  0.21899754  0.35420968  1
  F  F32  1  0.24461347  0.75018059  0.99927075  1
  F  F33  1  0.75538653  0.24981941  0.00072925  1
  F  F34  1  0.14648893  0.46076182  0.29393054  1
  F  F35  1  0.85351107  0.53923818  0.70606946  1
  F  F36  1  0.87815459  0.48234177  0.91555177  1
  F  F37  1  0.12184541  0.51765823  0.08444823  1
  F  F38  1  0.41470499  0.70404334  0.56047440  1
  F  F39  1  0.58529501  0.29595666  0.43952560  1
  F  F40  1  0.60706208  0.98323971  0.29679044  1
  F  F41  1  0.39293792  0.01676029  0.70320956  1
  F  F42  1  0.72973989  0.21783589  0.21807520  1
  F  F43  1  0.27026011  0.78216411  0.78192480  1
  F  F44  1  0.11170656  0.98385677  0.31063353  1
  F  F45  1  0.88829344  0.01614323  0.68936647  1
  F  F46  1  0.20629361  0.10674537  0.14206263  1
  F  F47  1  0.79370639  0.89325463  0.85793737  1
  F  F48  1  0.95743577  0.19371861  0.55910742  1
  F  F49  1  0.04256423  0.80628139  0.44089258  1
  F  F50  1  0.13767312  0.15064847  0.87398956  1
  F  F51  1  0.86232688  0.84935153  0.12601044  1
