# generated using pymatgen
data_LiBiO3
_symmetry_space_group_name_H-M   'P 1'
_cell_length_a   4.94691395
_cell_length_b   8.88109117
_cell_length_c   10.77666513
_cell_angle_alpha   90.00000000
_cell_angle_beta   90.00000000
_cell_angle_gamma   90.00000000
_symmetry_Int_Tables_number   1
_chemical_formula_structural   LiBiO3
_chemical_formula_sum   'Li8 Bi8 O24'
_cell_volume   473.46193901
_cell_formula_units_Z   8
loop_
 _symmetry_equiv_pos_site_id
 _symmetry_equiv_pos_as_xyz
  1  'x, y, z'
loop_
 _atom_site_type_symbol
 _atom_site_label
 _atom_site_symmetry_multiplicity
 _atom_site_fract_x
 _atom_site_fract_y
 _atom_site_fract_z
 _atom_site_occupancy
  Li  Li0  1  0.49963344  0.71262284  0.40334594  1
  Li  Li1  1  -0.00036656  0.28737716  0.09665406  1
  Li  Li2  1  0.50036656  0.21262284  0.09665406  1
  Li  Li3  1  0.00036656  0.78737716  0.40334594  1
  Li  Li4  1  0.50036656  0.28737716  0.59665406  1
  Li  Li5  1  0.00036656  0.71262284  0.90334594  1
  Li  Li6  1  0.49963344  0.78737716  0.90334594  1
  Li  Li7  1  -0.00036656  0.21262284  0.59665406  1
  Bi  Bi8  1  0.49648369  0.08597906  0.36355970  1
  Bi  Bi9  1  0.99648369  0.91402094  0.13644030  1
  Bi  Bi10  1  0.50351631  0.58597906  0.13644030  1
  Bi  Bi11  1  0.00351631  0.41402094  0.36355970  1
  Bi  Bi12  1  0.50351631  0.91402094  0.63644030  1
  Bi  Bi13  1  0.00351631  0.08597906  0.86355970  1
  Bi  Bi14  1  0.49648369  0.41402094  0.86355970  1
  Bi  Bi15  1  0.99648369  0.58597906  0.63644030  1
  O  O16  1  0.75000000  0.75000000  0.72219184  1
  O  O17  1  0.25000000  0.25000000  0.77780816  1
  O  O18  1  0.25000000  0.25000000  0.27780816  1
  O  O19  1  0.75000000  0.75000000  0.22219184  1
  O  O20  1  0.25000000  0.75000000  0.05029361  1
  O  O21  1  0.75000000  0.25000000  0.44970639  1
  O  O22  1  0.75000000  0.25000000  0.94970639  1
  O  O23  1  0.25000000  0.75000000  0.55029361  1
  O  O24  1  0.69306520  0.59506615  0.95769323  1
  O  O25  1  0.19306520  0.40493385  0.54230677  1
  O  O26  1  0.30693480  0.09506615  0.54230677  1
  O  O27  1  0.80693480  0.90493385  0.95769323  1
  O  O28  1  0.30693480  0.40493385  0.04230677  1
  O  O29  1  0.80693480  0.59506615  0.45769323  1
  O  O30  1  0.69306520  0.90493385  0.45769323  1
  O  O31  1  0.19306520  0.09506615  0.04230677  1
  O  O32  1  0.22421177  0.58407960  0.80038990  1
  O  O33  1  0.72421177  0.41592040  0.69961010  1
  O  O34  1  0.77578823  0.08407960  0.69961010  1
  O  O35  1  0.27578823  0.91592040  0.80038990  1
  O  O36  1  0.77578823  0.41592040  0.19961010  1
  O  O37  1  0.27578823  0.58407960  0.30038990  1
  O  O38  1  0.22421177  0.91592040  0.30038990  1
  O  O39  1  0.72421177  0.08407960  0.19961010  1
