# generated using pymatgen
data_Li(MoO3)3
_symmetry_space_group_name_H-M   'P 1'
_cell_length_a   7.58790603
_cell_length_b   13.46020463
_cell_length_c   16.01815177
_cell_angle_alpha   103.28965804
_cell_angle_beta   96.67261256
_cell_angle_gamma   106.93006620
_symmetry_Int_Tables_number   1
_chemical_formula_structural   Li(MoO3)3
_chemical_formula_sum   'Li8 Mo24 O72'
_cell_volume   1493.43638405
_cell_formula_units_Z   8
loop_
 _symmetry_equiv_pos_site_id
 _symmetry_equiv_pos_as_xyz
  1  'x, y, z'
loop_
 _atom_site_type_symbol
 _atom_site_label
 _atom_site_symmetry_multiplicity
 _atom_site_fract_x
 _atom_site_fract_y
 _atom_site_fract_z
 _atom_site_occupancy
  Li  Li0  1  0.76233463  0.97786786  0.59262127  1
  Li  Li1  1  0.23766537  0.02213214  0.40737873  1
  Li  Li2  1  0.14307617  0.44775678  0.13537490  1
  Li  Li3  1  0.85692383  0.55224322  0.86462510  1
  Li  Li4  1  0.53075420  0.85685957  0.86801203  1
  Li  Li5  1  0.46924580  0.14314043  0.13198797  1
  Li  Li6  1  0.39364772  0.23942349  0.59809793  1
  Li  Li7  1  0.60635228  0.76057651  0.40190207  1
  Mo  Mo8  1  0.39362129  0.57826469  0.89559632  1
  Mo  Mo9  1  0.60637871  0.42173531  0.10440368  1
  Mo  Mo10  1  0.02067801  0.35988009  0.88432138  1
  Mo  Mo11  1  0.97932199  0.64011991  0.11567862  1
  Mo  Mo12  1  0.01837238  0.85075585  0.89566985  1
  Mo  Mo13  1  0.98162762  0.14924415  0.10433015  1
  Mo  Mo14  1  0.38087077  0.05974227  0.88114812  1
  Mo  Mo15  1  0.61912923  0.94025773  0.11885188  1
  Mo  Mo16  1  0.13744945  0.94463681  0.16333055  1
  Mo  Mo17  1  0.86255055  0.05536319  0.83666945  1
  Mo  Mo18  1  0.49878508  0.66594554  0.16196152  1
  Mo  Mo19  1  0.50121492  0.33405446  0.83803848  1
  Mo  Mo20  1  0.40579267  0.76208172  0.60157193  1
  Mo  Mo21  1  0.59420733  0.23791828  0.39842807  1
  Mo  Mo22  1  0.25336409  0.96002023  0.59813576  1
  Mo  Mo23  1  0.74663591  0.03997977  0.40186424  1
  Mo  Mo24  1  0.88931636  0.75466259  0.59397325  1
  Mo  Mo25  1  0.11068364  0.24533741  0.40602675  1
  Mo  Mo26  1  0.75824652  0.46383560  0.60317849  1
  Mo  Mo27  1  0.24175348  0.53616440  0.39682151  1
  Mo  Mo28  1  0.90999568  0.26542055  0.59825377  1
  Mo  Mo29  1  0.09000432  0.73457945  0.40174623  1
  Mo  Mo30  1  0.26964786  0.46950627  0.59601393  1
  Mo  Mo31  1  0.73035214  0.53049373  0.40398607  1
  O  O32  1  0.77355658  0.38383911  0.85513505  1
  O  O33  1  0.22644342  0.61616089  0.14486495  1
  O  O34  1  0.55600591  0.50590549  0.85921328  1
  O  O35  1  0.44399409  0.49409451  0.14078672  1
  O  O36  1  0.48194151  0.20013667  0.85157755  1
  O  O37  1  0.51805849  0.79986333  0.14842245  1
  O  O38  1  0.56570206  0.39084062  0.98915934  1
  O  O39  1  0.43429794  0.60915938  0.01084066  1
  O  O40  1  0.32450308  0.51980410  0.70720689  1
  O  O41  1  0.67549692  0.48019590  0.29279311  1
  O  O42  1  0.13346318  0.50568373  0.85951135  1
  O  O43  1  0.86653682  0.49431627  0.14048865  1
  O  O44  1  0.95500975  0.29572511  0.71070711  1
  O  O45  1  0.04499025  0.70427489  0.28929289  1
  O  O46  1  0.89410553  0.19948538  0.85284783  1
  O  O47  1  0.10589447  0.80051462  0.14715217  1
  O  O48  1  0.07290582  0.89910385  0.01084764  1
  O  O49  1  0.92709418  0.10089615  0.98915236  1
  O  O50  1  0.93502330  0.77829866  0.70464335  1
  O  O51  1  0.06497670  0.22170134  0.29535665  1
  O  O52  1  0.39496867  0.98373918  0.14575698  1
  O  O53  1  0.60503133  0.01626082  0.85424302  1
  O  O54  1  0.87896051  0.93163614  0.14292283  1
  O  O55  1  0.12103949  0.06836386  0.85707717  1
  O  O56  1  0.18376786  0.98931456  0.27729367  1
  O  O57  1  0.81623214  0.01068544  0.72270633  1
  O  O58  1  0.17429195  0.10253478  0.14300936  1
  O  O59  1  0.82570805  0.89746522  0.85699064  1
  O  O60  1  0.93948324  0.71021417  0.86823260  1
  O  O61  1  0.06051676  0.28978583  0.13176740  1
  O  O62  1  0.75192551  0.10258396  0.14042202  1
  O  O63  1  0.24807449  0.89741604  0.85957798  1
  O  O64  1  0.30124742  0.00336996  0.71174260  1
  O  O65  1  0.69875258  0.99663004  0.28825740  1
  O  O66  1  0.56565958  0.89847185  0.00674411  1
  O  O67  1  0.43434042  0.10152815  0.99325589  1
  O  O68  1  0.45169261  0.30339814  0.72388446  1
  O  O69  1  0.54830739  0.69660186  0.27611554  1
  O  O70  1  0.74043396  0.66525682  0.14128087  1
  O  O71  1  0.25956604  0.33474318  0.85871913  1
  O  O72  1  0.55042217  0.29974189  0.13141235  1
  O  O73  1  0.44957783  0.70025811  0.86858765  1
  O  O74  1  0.06127416  0.39539822  0.99625187  1
  O  O75  1  0.93872584  0.60460178  0.00374813  1
  O  O76  1  0.51101779  0.55191974  0.42734305  1
  O  O77  1  0.48898221  0.44808026  0.57265695  1
  O  O78  1  0.00795138  0.57105224  0.41422796  1
  O  O79  1  0.99204862  0.42894776  0.58577204  1
  O  O80  1  0.17081221  0.40020988  0.44006277  1
  O  O81  1  0.82918779  0.59979012  0.55993723  1
  O  O82  1  0.29458719  0.59417630  0.55705659  1
  O  O83  1  0.70541281  0.40582370  0.44294341  1
  O  O84  1  0.83754508  0.70106220  0.42984674  1
  O  O85  1  0.16245492  0.29893780  0.57015326  1
  O  O86  1  0.46820221  0.90994790  0.58439511  1
  O  O87  1  0.53179779  0.09005210  0.41560489  1
  O  O88  1  0.67504212  0.29722424  0.57277644  1
  O  O89  1  0.32495788  0.70277576  0.42722356  1
  O  O90  1  0.14873916  0.77236237  0.56586508  1
  O  O91  1  0.85126084  0.22763763  0.43413492  1
  O  O92  1  0.82566943  0.12103336  0.55966326  1
  O  O93  1  0.17433057  0.87896664  0.44033674  1
  O  O94  1  0.44208067  0.78145867  0.71169719  1
  O  O95  1  0.55791933  0.21854133  0.28830281  1
  O  O96  1  0.64749084  0.75802144  0.56688096  1
  O  O97  1  0.35250916  0.24197856  0.43311904  1
  O  O98  1  0.97985134  0.90492609  0.58135400  1
  O  O99  1  0.02014866  0.09507391  0.41864600  1
  O  O100  1  0.30443253  0.07853810  0.56346635  1
  O  O101  1  0.69556747  0.92146190  0.43653365  1
  O  O102  1  0.19776436  0.48498254  0.28599015  1
  O  O103  1  0.80223564  0.51501746  0.71400985  1
