# generated using pymatgen
data_Li11Ge6
_symmetry_space_group_name_H-M   'P 1'
_cell_length_a   4.30616638
_cell_length_b   10.52234242
_cell_length_c   12.47146789
_cell_angle_alpha   90.00000000
_cell_angle_beta   99.94138061
_cell_angle_gamma   90.00000000
_symmetry_Int_Tables_number   1
_chemical_formula_structural   Li11Ge6
_chemical_formula_sum   'Li22 Ge12'
_cell_volume   556.60920029
_cell_formula_units_Z   2
loop_
 _symmetry_equiv_pos_site_id
 _symmetry_equiv_pos_as_xyz
  1  'x, y, z'
loop_
 _atom_site_type_symbol
 _atom_site_label
 _atom_site_symmetry_multiplicity
 _atom_site_fract_x
 _atom_site_fract_y
 _atom_site_fract_z
 _atom_site_occupancy
  Li  Li0  1  0.17846459  0.11961337  0.35692618  1
  Li  Li1  1  0.82153541  0.88038663  0.64307382  1
  Li  Li2  1  0.82153541  0.61961337  0.64307382  1
  Li  Li3  1  0.17846459  0.38038663  0.35692618  1
  Li  Li4  1  0.91182054  0.99790804  0.82363909  1
  Li  Li5  1  0.08817946  0.00209196  0.17636091  1
  Li  Li6  1  0.08817946  0.49790804  0.17636091  1
  Li  Li7  1  0.91182054  0.50209196  0.82363909  1
  Li  Li8  1  0.14279013  0.75000000  0.28558227  1
  Li  Li9  1  0.85720987  0.25000000  0.71441773  1
  Li  Li10  1  0.02473020  0.75000000  0.04946041  1
  Li  Li11  1  0.97526980  0.25000000  0.95053959  1
  Li  Li12  1  0.63761287  0.25000000  0.27522774  1
  Li  Li13  1  0.36238713  0.75000000  0.72477226  1
  Li  Li14  1  0.53489187  0.11453738  0.06978574  1
  Li  Li15  1  0.46510813  0.88546262  0.93021426  1
  Li  Li16  1  0.46510813  0.61453738  0.93021426  1
  Li  Li17  1  0.53489187  0.38546262  0.06978574  1
  Li  Li18  1  0.75786845  0.39455568  0.51573591  1
  Li  Li19  1  0.24213155  0.60544432  0.48426409  1
  Li  Li20  1  0.24213155  0.89455568  0.48426409  1
  Li  Li21  1  0.75786845  0.10544432  0.51573591  1
  Ge  Ge22  1  0.91908086  0.75000000  0.83816072  1
  Ge  Ge23  1  0.08091914  0.25000000  0.16183928  1
  Ge  Ge24  1  0.72905549  0.75000000  0.45810897  1
  Ge  Ge25  1  0.27094451  0.25000000  0.54189103  1
  Ge  Ge26  1  0.32878828  0.44546292  0.65757357  1
  Ge  Ge27  1  0.67121172  0.55453708  0.34242643  1
  Ge  Ge28  1  0.67121172  0.94546292  0.34242643  1
  Ge  Ge29  1  0.32878828  0.05453708  0.65757357  1
  Ge  Ge30  1  0.42384099  0.36525818  0.84768098  1
  Ge  Ge31  1  0.57615901  0.63474182  0.15231902  1
  Ge  Ge32  1  0.57615901  0.86525818  0.15231902  1
  Ge  Ge33  1  0.42384099  0.13474182  0.84768098  1
