# generated using pymatgen
data_RbLi7Ge8
_symmetry_space_group_name_H-M   'P 1'
_cell_length_a   9.75152025
_cell_length_b   9.75152025
_cell_length_c   16.60010787
_cell_angle_alpha   90.00000000
_cell_angle_beta   90.00000000
_cell_angle_gamma   119.99999998
_symmetry_Int_Tables_number   1
_chemical_formula_structural   RbLi7Ge8
_chemical_formula_sum   'Rb4 Li28 Ge32'
_cell_volume   1367.05565472
_cell_formula_units_Z   4
loop_
 _symmetry_equiv_pos_site_id
 _symmetry_equiv_pos_as_xyz
  1  'x, y, z'
loop_
 _atom_site_type_symbol
 _atom_site_label
 _atom_site_symmetry_multiplicity
 _atom_site_fract_x
 _atom_site_fract_y
 _atom_site_fract_z
 _atom_site_occupancy
  Li  Li0  1  0.55990659  0.44009341  0.94388600  1
  Li  Li1  1  0.11981319  0.55990659  0.44388600  1
  Li  Li2  1  0.44009341  0.88018681  0.44388600  1
  Li  Li3  1  0.55990659  0.11981319  0.94388600  1
  Li  Li4  1  0.88018681  0.44009341  0.94388600  1
  Li  Li5  1  0.44009341  0.55990659  0.44388600  1
  Li  Li6  1  0.52211343  0.47788657  0.31018864  1
  Li  Li7  1  0.04422685  0.52211343  0.81018864  1
  Li  Li8  1  0.47788657  0.95577315  0.81018864  1
  Li  Li9  1  0.52211343  0.04422685  0.31018864  1
  Li  Li10  1  0.95577315  0.47788657  0.31018864  1
  Li  Li11  1  0.47788657  0.52211343  0.81018864  1
  Li  Li12  1  0.16087140  0.83912860  0.08405535  1
  Li  Li13  1  0.32174279  0.16087140  0.58405535  1
  Li  Li14  1  0.83912860  0.67825721  0.58405535  1
  Li  Li15  1  0.16087140  0.32174279  0.08405535  1
  Li  Li16  1  0.67825721  0.83912860  0.08405535  1
  Li  Li17  1  0.83912860  0.16087140  0.58405535  1
  Li  Li18  1  0.83392632  0.16607368  0.40003232  1
  Li  Li19  1  0.66785264  0.83392632  0.90003232  1
  Li  Li20  1  0.16607368  0.33214736  0.90003232  1
  Li  Li21  1  0.83392632  0.66785264  0.40003232  1
  Li  Li22  1  0.33214736  0.16607368  0.40003232  1
  Li  Li23  1  0.16607368  0.83392632  0.90003232  1
  Li  Li24  1  0.00000000  0.00000000  0.65345700  1
  Li  Li25  1  0.00000000  0.00000000  0.15345700  1
  Li  Li26  1  0.00000000  0.00000000  0.83457215  1
  Li  Li27  1  0.00000000  0.00000000  0.33457215  1
  Ge  Ge28  1  0.66666667  0.33333333  0.37716648  1
  Ge  Ge29  1  0.33333333  0.66666667  0.87716648  1
  Ge  Ge30  1  0.57850102  0.42149898  0.50696634  1
  Ge  Ge31  1  0.15700204  0.57850102  0.00696634  1
  Ge  Ge32  1  0.42149898  0.84299796  0.00696634  1
  Ge  Ge33  1  0.57850102  0.15700204  0.50696634  1
  Ge  Ge34  1  0.84299796  0.42149898  0.50696634  1
  Ge  Ge35  1  0.42149898  0.57850102  0.00696634  1
  Ge  Ge36  1  0.34815243  0.17407621  0.86772413  1
  Ge  Ge37  1  0.17407621  0.34815243  0.36772413  1
  Ge  Ge38  1  0.17407621  0.82592379  0.36772413  1
  Ge  Ge39  1  0.82592379  0.17407621  0.86772413  1
  Ge  Ge40  1  0.82592379  0.65184757  0.86772413  1
  Ge  Ge41  1  0.65184757  0.82592379  0.36772413  1
  Ge  Ge42  1  0.26261244  0.26557716  0.73511914  1
  Ge  Ge43  1  0.73442284  0.99703527  0.73511914  1
  Ge  Ge44  1  0.00296473  0.73738756  0.73511914  1
  Ge  Ge45  1  0.99703527  0.26261244  0.23511914  1
  Ge  Ge46  1  0.73738756  0.73442284  0.23511914  1
  Ge  Ge47  1  0.26557716  0.00296473  0.23511914  1
  Ge  Ge48  1  0.26261244  0.99703527  0.73511914  1
  Ge  Ge49  1  0.26557716  0.26261244  0.23511914  1
  Ge  Ge50  1  0.99703527  0.73442284  0.23511914  1
  Ge  Ge51  1  0.00296473  0.26557716  0.73511914  1
  Ge  Ge52  1  0.73442284  0.73738756  0.73511914  1
  Ge  Ge53  1  0.73738756  0.00296473  0.23511914  1
  Ge  Ge54  1  0.18361509  0.09180754  0.99628348  1
  Ge  Ge55  1  0.09180754  0.18361509  0.49628348  1
  Ge  Ge56  1  0.09180754  0.90819246  0.49628348  1
  Ge  Ge57  1  0.90819246  0.09180754  0.99628348  1
  Ge  Ge58  1  0.90819246  0.81638491  0.99628348  1
  Ge  Ge59  1  0.81638491  0.90819246  0.49628348  1
  Rb  Rb60  1  0.66666667  0.33333333  0.15213870  1
  Rb  Rb61  1  0.33333333  0.66666667  0.65213870  1
  Rb  Rb62  1  0.66666667  0.33333333  0.71459207  1
  Rb  Rb63  1  0.33333333  0.66666667  0.21459207  1
