# generated using pymatgen
data_Li2CO3
_symmetry_space_group_name_H-M   'P 1'
_cell_length_a   4.82924323
_cell_length_b   4.82924369
_cell_length_c   6.07631725
_cell_angle_alpha   69.79975189
_cell_angle_beta   69.79973796
_cell_angle_gamma   61.92438976
_symmetry_Int_Tables_number   1
_chemical_formula_structural   Li2CO3
_chemical_formula_sum   'Li4 C2 O6'
_cell_volume   114.44868910
_cell_formula_units_Z   2
loop_
 _symmetry_equiv_pos_site_id
 _symmetry_equiv_pos_as_xyz
  1  'x, y, z'
loop_
 _atom_site_type_symbol
 _atom_site_label
 _atom_site_symmetry_multiplicity
 _atom_site_fract_x
 _atom_site_fract_y
 _atom_site_fract_z
 _atom_site_occupancy
  Li  Li0  1  0.64295592  0.74982744  0.16260976  1
  Li  Li1  1  0.25017256  0.35704408  0.33739024  1
  Li  Li2  1  0.35704408  0.25017256  0.83739024  1
  Li  Li3  1  0.74982744  0.64295592  0.66260976  1
  C  C4  1  0.06619574  0.93380426  0.75000000  1
  C  C5  1  0.93380426  0.06619574  0.25000000  1
  O  O6  1  0.32319230  0.67680770  0.75000000  1
  O  O7  1  0.67680770  0.32319230  0.25000000  1
  O  O8  1  0.08250066  0.21240658  0.68576076  1
  O  O9  1  0.78759342  0.91749934  0.81423924  1
  O  O10  1  0.91749934  0.78759342  0.31423924  1
  O  O11  1  0.21240658  0.08250066  0.18576076  1
