# generated using pymatgen
data_Li13(Ga7Cu2)3
_symmetry_space_group_name_H-M   'P 1'
_cell_length_a   11.66028189
_cell_length_b   11.66028189
_cell_length_c   11.66028189
_cell_angle_alpha   109.47122063
_cell_angle_beta   109.47122063
_cell_angle_gamma   109.47122063
_symmetry_Int_Tables_number   1
_chemical_formula_structural   Li13(Ga7Cu2)3
_chemical_formula_sum   'Li26 Ga42 Cu12'
_cell_volume   1220.40859835
_cell_formula_units_Z   2
loop_
 _symmetry_equiv_pos_site_id
 _symmetry_equiv_pos_as_xyz
  1  'x, y, z'
loop_
 _atom_site_type_symbol
 _atom_site_label
 _atom_site_symmetry_multiplicity
 _atom_site_fract_x
 _atom_site_fract_y
 _atom_site_fract_z
 _atom_site_occupancy
  Li  Li0  1  0.79463449  0.29463449  0.50000000  1
  Li  Li1  1  0.50000000  0.20536551  0.70536551  1
  Li  Li2  1  0.29463449  0.50000000  0.79463449  1
  Li  Li3  1  0.50000000  0.79463449  0.29463449  1
  Li  Li4  1  0.70536551  0.50000000  0.20536551  1
  Li  Li5  1  0.20536551  0.70536551  0.50000000  1
  Li  Li6  1  0.00000000  0.00000000  0.62708155  1
  Li  Li7  1  -0.00000000  0.62708155  0.00000000  1
  Li  Li8  1  0.37291845  0.37291845  0.37291845  1
  Li  Li9  1  0.62708155  -0.00000000  -0.00000000  1
  Li  Li10  1  -0.00000000  -0.00000000  0.37291845  1
  Li  Li11  1  0.00000000  0.37291845  -0.00000000  1
  Li  Li12  1  0.62708155  0.62708155  0.62708155  1
  Li  Li13  1  0.37291845  0.00000000  0.00000000  1
  Li  Li14  1  0.58033725  0.69590611  0.88443113  1
  Li  Li15  1  0.88443113  0.18852502  0.30409389  1
  Li  Li16  1  0.69590611  0.11556887  0.81147598  1
  Li  Li17  1  0.11556887  0.81147598  0.69590611  1
  Li  Li18  1  0.30409389  0.11556887  0.41966275  1
  Li  Li19  1  0.88443113  0.58033725  0.69590611  1
  Li  Li20  1  0.69590611  0.88443113  0.58033725  1
  Li  Li21  1  0.30409389  0.88443113  0.18852402  1
  Li  Li22  1  0.11556887  0.41966275  0.30409389  1
  Li  Li23  1  0.81147498  0.69590611  0.11556887  1
  Li  Li24  1  0.41966275  0.30409389  0.11556887  1
  Li  Li25  1  0.18852502  0.30409389  0.88443113  1
  Ga  Ga26  1  0.09322769  0.50000000  0.59322769  1
  Ga  Ga27  1  0.59322769  0.09322769  0.50000000  1
  Ga  Ga28  1  0.50000000  0.40677231  0.90677231  1
  Ga  Ga29  1  0.40677231  0.90677231  0.50000000  1
  Ga  Ga30  1  0.50000000  0.59322769  0.09322769  1
  Ga  Ga31  1  0.90677231  0.50000000  0.40677231  1
  Ga  Ga32  1  0.09695204  0.15936498  0.25631702  1
  Ga  Ga33  1  0.93758607  0.09695204  0.84063502  1
  Ga  Ga34  1  0.84063502  0.74368298  0.90304796  1
  Ga  Ga35  1  0.74368298  0.90304796  0.84063502  1
  Ga  Ga36  1  0.15936498  0.06241393  0.90304796  1
  Ga  Ga37  1  0.25631702  0.09695204  0.15936498  1
  Ga  Ga38  1  0.15936498  0.25631702  0.09695204  1
  Ga  Ga39  1  0.84063502  0.93758607  0.09695204  1
  Ga  Ga40  1  0.06241393  0.90304796  0.15936498  1
  Ga  Ga41  1  0.90304796  0.84063502  0.74368298  1
  Ga  Ga42  1  0.90304796  0.15936498  0.06241393  1
  Ga  Ga43  1  0.09695204  0.84063502  0.93758607  1
  Ga  Ga44  1  0.03048632  0.24632910  0.59471954  1
  Ga  Ga45  1  0.78415722  0.34839144  0.75367090  1
  Ga  Ga46  1  0.43576678  0.40528046  0.65160856  1
  Ga  Ga47  1  0.40528046  0.65160856  0.43576678  1
  Ga  Ga48  1  0.56423322  0.21584278  0.96951368  1
  Ga  Ga49  1  0.59471954  0.03048632  0.24632910  1
  Ga  Ga50  1  0.24632910  0.59471954  0.03048632  1
  Ga  Ga51  1  0.75367090  0.78415722  0.34839144  1
  Ga  Ga52  1  0.21584278  0.96951368  0.56423322  1
  Ga  Ga53  1  0.65160856  0.43576678  0.40528046  1
  Ga  Ga54  1  0.96951368  0.56423322  0.21584278  1
  Ga  Ga55  1  0.34839144  0.75367090  0.78415722  1
  Ga  Ga56  1  0.96951368  0.75367090  0.40528046  1
  Ga  Ga57  1  0.21584278  0.65160856  0.24632910  1
  Ga  Ga58  1  0.56423322  0.59471954  0.34839144  1
  Ga  Ga59  1  0.59471954  0.34839144  0.56423322  1
  Ga  Ga60  1  0.43576678  0.78415722  0.03048632  1
  Ga  Ga61  1  0.40528046  0.96951368  0.75367090  1
  Ga  Ga62  1  0.75367090  0.40528046  0.96951368  1
  Ga  Ga63  1  0.24632910  0.21584278  0.65160856  1
  Ga  Ga64  1  0.78415722  0.03048632  0.43576678  1
  Ga  Ga65  1  0.34839144  0.56423322  0.59471954  1
  Ga  Ga66  1  0.03048632  0.43576678  0.78415722  1
  Ga  Ga67  1  0.65160856  0.24632910  0.21584278  1
  Cu  Cu68  1  0.17799096  0.31762546  0.49561643  1
  Cu  Cu69  1  0.86036650  0.17799096  0.68237454  1
  Cu  Cu70  1  0.68237454  0.50438357  0.82200904  1
  Cu  Cu71  1  0.50438357  0.82200904  0.68237454  1
  Cu  Cu72  1  0.31762546  0.13963350  0.82200904  1
  Cu  Cu73  1  0.49561643  0.17799096  0.31762546  1
  Cu  Cu74  1  0.31762546  0.49561643  0.17799096  1
  Cu  Cu75  1  0.68237454  0.86036650  0.17799096  1
  Cu  Cu76  1  0.13963350  0.82200904  0.31762546  1
  Cu  Cu77  1  0.82200904  0.68237454  0.50438357  1
  Cu  Cu78  1  0.82200904  0.31762546  0.13963350  1
  Cu  Cu79  1  0.17799096  0.68237454  0.86036650  1
