# generated using pymatgen
data_LiMn4O8
_symmetry_space_group_name_H-M   'P 1'
_cell_length_a   8.05224982
_cell_length_b   8.05224982
_cell_length_c   8.05224982
_cell_angle_alpha   90.00000000
_cell_angle_beta   90.00000000
_cell_angle_gamma   90.00000000
_symmetry_Int_Tables_number   1
_chemical_formula_structural   LiMn4O8
_chemical_formula_sum   'Li4 Mn16 O32'
_cell_volume   522.09762913
_cell_formula_units_Z   4
loop_
 _symmetry_equiv_pos_site_id
 _symmetry_equiv_pos_as_xyz
  1  'x, y, z'
loop_
 _atom_site_type_symbol
 _atom_site_label
 _atom_site_symmetry_multiplicity
 _atom_site_fract_x
 _atom_site_fract_y
 _atom_site_fract_z
 _atom_site_occupancy
  Li  Li0  1  0.49963934  0.99963934  0.50036066  1
  Li  Li1  1  0.99963934  0.50036066  0.49963934  1
  Li  Li2  1  0.50036066  0.49963934  0.99963934  1
  Li  Li3  1  0.00036066  0.00036066  0.00036066  1
  Mn  Mn4  1  0.87646580  0.37646580  0.12353420  1
  Mn  Mn5  1  0.37646580  0.12353420  0.87646580  1
  Mn  Mn6  1  0.12353420  0.87646580  0.37646580  1
  Mn  Mn7  1  0.62353420  0.62353420  0.62353420  1
  Mn  Mn8  1  0.62369793  0.87567751  0.87639095  1
  Mn  Mn9  1  0.12360905  0.12369793  0.62432249  1
  Mn  Mn10  1  0.37567751  0.62360905  0.37630207  1
  Mn  Mn11  1  0.12369793  0.62432249  0.12360905  1
  Mn  Mn12  1  0.62360905  0.37630207  0.37567751  1
  Mn  Mn13  1  0.87567751  0.87639095  0.62369793  1
  Mn  Mn14  1  0.37630207  0.37567751  0.62360905  1
  Mn  Mn15  1  0.87639095  0.62369793  0.87567751  1
  Mn  Mn16  1  0.62432249  0.12360905  0.12369793  1
  Mn  Mn17  1  0.87630207  0.12432249  0.37639095  1
  Mn  Mn18  1  0.37639095  0.87630207  0.12432249  1
  Mn  Mn19  1  0.12432249  0.37639095  0.87630207  1
  O  O20  1  0.11118495  0.61118495  0.88881505  1
  O  O21  1  0.61118495  0.88881505  0.11118495  1
  O  O22  1  0.88881505  0.11118495  0.61118495  1
  O  O23  1  0.38881505  0.38881505  0.38881505  1
  O  O24  1  0.36174609  0.86191581  0.36250577  1
  O  O25  1  0.63749423  0.86174609  0.63808419  1
  O  O26  1  0.36191581  0.13749423  0.63825391  1
  O  O27  1  0.86174609  0.63808419  0.63749423  1
  O  O28  1  0.13749423  0.63825391  0.36191581  1
  O  O29  1  0.86191581  0.36250577  0.36174609  1
  O  O30  1  0.63825391  0.36191581  0.13749423  1
  O  O31  1  0.36250577  0.36174609  0.86191581  1
  O  O32  1  0.63808419  0.63749423  0.86174609  1
  O  O33  1  0.13825391  0.13808419  0.86250577  1
  O  O34  1  0.86250577  0.13825391  0.13808419  1
  O  O35  1  0.13808419  0.86250577  0.13825391  1
  O  O36  1  0.63809965  0.13809965  0.36190035  1
  O  O37  1  0.13809965  0.36190035  0.63809965  1
  O  O38  1  0.36190035  0.63809965  0.13809965  1
  O  O39  1  0.86190035  0.86190035  0.86190035  1
  O  O40  1  0.11045413  0.88896324  0.61122255  1
  O  O41  1  0.38877745  0.61045413  0.61103676  1
  O  O42  1  0.38896324  0.88877745  0.88954587  1
  O  O43  1  0.61045413  0.61103676  0.38877745  1
  O  O44  1  0.88877745  0.88954587  0.38896324  1
  O  O45  1  0.88896324  0.61122255  0.11045413  1
  O  O46  1  0.88954587  0.38896324  0.88877745  1
  O  O47  1  0.61122255  0.11045413  0.88896324  1
  O  O48  1  0.61103676  0.38877745  0.61045413  1
  O  O49  1  0.38954587  0.11103676  0.11122255  1
  O  O50  1  0.11122255  0.38954587  0.11103676  1
  O  O51  1  0.11103676  0.11122255  0.38954587  1
