# generated using pymatgen
data_LiTiO2
_symmetry_space_group_name_H-M   'P 1'
_cell_length_a   5.72183673
_cell_length_b   7.65708905
_cell_length_c   5.08816778
_cell_angle_alpha   29.00239467
_cell_angle_beta   55.78712133
_cell_angle_gamma   41.64641103
_symmetry_Int_Tables_number   1
_chemical_formula_structural   LiTiO2
_chemical_formula_sum   'Li2 Ti2 O4'
_cell_volume   68.88277266
_cell_formula_units_Z   2
loop_
 _symmetry_equiv_pos_site_id
 _symmetry_equiv_pos_as_xyz
  1  'x, y, z'
loop_
 _atom_site_type_symbol
 _atom_site_label
 _atom_site_symmetry_multiplicity
 _atom_site_fract_x
 _atom_site_fract_y
 _atom_site_fract_z
 _atom_site_occupancy
  Li  Li0  1  0.74994932  -0.00000000  0.50000000  1
  Li  Li1  1  0.50005068  0.50000000  0.50000000  1
  Ti  Ti2  1  0.25004785  0.00000000  0.50000000  1
  Ti  Ti3  1  0.99995215  0.50000000  0.50000000  1
  O  O4  1  0.00009082  0.99999584  -0.00025153  1
  O  O5  1  0.24990918  0.50000416  0.00025153  1
  O  O6  1  0.75016502  0.49999584  -0.00025153  1
  O  O7  1  0.49983498  0.00000416  0.00025153  1
