# generated using pymatgen
data_Li2TbF6
_symmetry_space_group_name_H-M   'P 1'
_cell_length_a   4.24796024
_cell_length_b   7.68679069
_cell_length_c   12.19492842
_cell_angle_alpha   104.41109193
_cell_angle_beta   90.00000000
_cell_angle_gamma   90.00000000
_symmetry_Int_Tables_number   1
_chemical_formula_structural   Li2TbF6
_chemical_formula_sum   'Li8 Tb4 F24'
_cell_volume   385.67374341
_cell_formula_units_Z   4
loop_
 _symmetry_equiv_pos_site_id
 _symmetry_equiv_pos_as_xyz
  1  'x, y, z'
loop_
 _atom_site_type_symbol
 _atom_site_label
 _atom_site_symmetry_multiplicity
 _atom_site_fract_x
 _atom_site_fract_y
 _atom_site_fract_z
 _atom_site_occupancy
  Li  Li0  1  0.92021438  0.62838042  0.19064723  1
  Li  Li1  1  0.42021438  0.37161958  0.30935277  1
  Li  Li2  1  0.07978562  0.37161958  0.80935277  1
  Li  Li3  1  0.57978562  0.62838042  0.69064723  1
  Li  Li4  1  0.48053403  0.94914845  0.32161372  1
  Li  Li5  1  0.98053403  0.05085155  0.17838628  1
  Li  Li6  1  0.51946597  0.05085155  0.67838628  1
  Li  Li7  1  0.01946597  0.94914845  0.82161372  1
  Tb  Tb8  1  0.96367351  0.74830124  0.50250827  1
  Tb  Tb9  1  0.46367351  0.25169876  0.99749173  1
  Tb  Tb10  1  0.03632649  0.25169876  0.49749173  1
  Tb  Tb11  1  0.53632649  0.74830124  0.00250827  1
  F  F12  1  0.55523019  0.53266572  0.10546916  1
  F  F13  1  0.05523019  0.46733428  0.39453084  1
  F  F14  1  0.44476981  0.46733428  0.89453084  1
  F  F15  1  0.94476981  0.53266572  0.60546916  1
  F  F16  1  0.82914923  0.88266652  0.68494436  1
  F  F17  1  0.32914923  0.11733348  0.81505564  1
  F  F18  1  0.17085077  0.11733348  0.31505564  1
  F  F19  1  0.67085077  0.88266652  0.18494436  1
  F  F20  1  0.73864015  0.97664046  0.93956024  1
  F  F21  1  0.23864015  0.02335954  0.56043976  1
  F  F22  1  0.26135985  0.02335954  0.06043976  1
  F  F23  1  0.76135985  0.97664046  0.43956024  1
  F  F24  1  0.87118990  0.61623017  0.83210560  1
  F  F25  1  0.37118990  0.38376983  0.66789440  1
  F  F26  1  0.12881010  0.38376983  0.16789440  1
  F  F27  1  0.62881010  0.61623017  0.33210560  1
  F  F28  1  0.04698010  0.69655538  0.05015527  1
  F  F29  1  0.54698010  0.30344462  0.44984473  1
  F  F30  1  0.95301990  0.30344462  0.94984473  1
  F  F31  1  0.45301990  0.69655538  0.55015527  1
  F  F32  1  0.27916287  0.75370259  0.82638121  1
  F  F33  1  0.77916287  0.24629741  0.67361879  1
  F  F34  1  0.72083713  0.24629741  0.17361879  1
  F  F35  1  0.22083713  0.75370259  0.32638121  1
