# generated using pymatgen
data_Li2BeF4
_symmetry_space_group_name_H-M   'P 1'
_cell_length_a   8.18411882
_cell_length_b   8.18411848
_cell_length_c   8.18411843
_cell_angle_alpha   107.79954797
_cell_angle_beta   107.79954824
_cell_angle_gamma   107.79954848
_symmetry_Int_Tables_number   1
_chemical_formula_structural   Li2BeF4
_chemical_formula_sum   'Li12 Be6 F24'
_cell_volume   446.19029504
_cell_formula_units_Z   6
loop_
 _symmetry_equiv_pos_site_id
 _symmetry_equiv_pos_as_xyz
  1  'x, y, z'
loop_
 _atom_site_type_symbol
 _atom_site_label
 _atom_site_symmetry_multiplicity
 _atom_site_fract_x
 _atom_site_fract_y
 _atom_site_fract_z
 _atom_site_occupancy
  Li  Li0  1  0.27693690  0.10170791  0.87671488  1
  Li  Li1  1  0.10170791  0.87671488  0.27693690  1
  Li  Li2  1  0.87671488  0.27693690  0.10170791  1
  Li  Li3  1  0.72306310  0.89829209  0.12328512  1
  Li  Li4  1  0.89829209  0.12328512  0.72306310  1
  Li  Li5  1  0.12328512  0.72306310  0.89829209  1
  Li  Li6  1  0.61263874  0.43858915  0.20487438  1
  Li  Li7  1  0.43858915  0.20487438  0.61263874  1
  Li  Li8  1  0.20487438  0.61263874  0.43858915  1
  Li  Li9  1  0.38736126  0.56141085  0.79512562  1
  Li  Li10  1  0.56141085  0.79512562  0.38736126  1
  Li  Li11  1  0.79512562  0.38736126  0.56141085  1
  Be  Be12  1  0.94757163  0.76603530  0.53914108  1
  Be  Be13  1  0.76603530  0.53914108  0.94757163  1
  Be  Be14  1  0.53914108  0.94757163  0.76603530  1
  Be  Be15  1  0.05242837  0.23396470  0.46085892  1
  Be  Be16  1  0.23396470  0.46085892  0.05242837  1
  Be  Be17  1  0.46085892  0.05242837  0.23396470  1
  F  F18  1  0.60294128  0.26627305  0.31148150  1
  F  F19  1  0.31148150  0.60294128  0.26627305  1
  F  F20  1  0.26627305  0.31148150  0.60294128  1
  F  F21  1  0.39705872  0.73372695  0.68851850  1
  F  F22  1  0.68851850  0.39705872  0.73372695  1
  F  F23  1  0.73372695  0.68851850  0.39705872  1
  F  F24  1  0.02523764  0.97356371  0.69223916  1
  F  F25  1  0.97356371  0.69223916  0.02523764  1
  F  F26  1  0.69223916  0.02523764  0.97356371  1
  F  F27  1  0.97476236  0.02643629  0.30776084  1
  F  F28  1  0.02643629  0.30776084  0.97476236  1
  F  F29  1  0.30776084  0.97476236  0.02643629  1
  F  F30  1  0.07059571  0.75677658  0.42811302  1
  F  F31  1  0.75677658  0.42811302  0.07059571  1
  F  F32  1  0.42811302  0.07059571  0.75677658  1
  F  F33  1  0.92940429  0.24322342  0.57188698  1
  F  F34  1  0.24322342  0.57188698  0.92940429  1
  F  F35  1  0.57188698  0.92940429  0.24322342  1
  F  F36  1  0.96420614  0.63681126  0.64342031  1
  F  F37  1  0.63681126  0.64342031  0.96420614  1
  F  F38  1  0.64342031  0.96420614  0.63681126  1
  F  F39  1  0.03579386  0.36318874  0.35657969  1
  F  F40  1  0.36318874  0.35657969  0.03579386  1
  F  F41  1  0.35657969  0.03579386  0.36318874  1
