# generated using pymatgen
data_Li3Ni3(PO4)4
_symmetry_space_group_name_H-M   'P 1'
_cell_length_a   13.03138204
_cell_length_b   8.02762532
_cell_length_c   8.91297579
_cell_angle_alpha   90.08336468
_cell_angle_beta   86.23829382
_cell_angle_gamma   90.22238649
_symmetry_Int_Tables_number   1
_chemical_formula_structural   Li3Ni3(PO4)4
_chemical_formula_sum   'Li9 Ni9 P12 O48'
_cell_volume   930.37928766
_cell_formula_units_Z   3
loop_
 _symmetry_equiv_pos_site_id
 _symmetry_equiv_pos_as_xyz
  1  'x, y, z'
loop_
 _atom_site_type_symbol
 _atom_site_label
 _atom_site_symmetry_multiplicity
 _atom_site_fract_x
 _atom_site_fract_y
 _atom_site_fract_z
 _atom_site_occupancy
  Li  Li0  1  0.16307729  0.86440409  0.22888965  1
  Li  Li1  1  0.49979292  0.13699940  0.10177570  1
  Li  Li2  1  0.16792224  0.63732048  0.73549800  1
  Li  Li3  1  0.49508247  0.63424230  0.40339682  1
  Li  Li4  1  0.83341958  0.63943435  0.06596350  1
  Li  Li5  1  0.17186537  0.36797290  0.93076770  1
  Li  Li6  1  0.49932214  0.36380196  0.59522288  1
  Li  Li7  1  0.83467168  0.86376568  0.57046017  1
  Li  Li8  1  0.83332797  0.13310810  0.76201866  1
  O  O9  1  0.56285950  0.92009252  0.08255274  1
  O  O10  1  0.90183865  0.62782248  0.84846253  1
  O  O11  1  0.90543213  0.92528911  0.75162768  1
  O  O12  1  0.93463627  0.29787949  0.67773691  1
  O  O13  1  0.74063302  0.36047987  0.80967372  1
  O  O14  1  0.92764018  0.63599598  0.52674757  1
  O  O15  1  0.58607647  0.65630628  0.85866477  1
  O  O16  1  0.40219073  0.70341455  0.99213691  1
  O  O17  1  0.76346891  0.07003931  0.58169787  1
  O  O18  1  0.23551860  0.87846248  0.01439859  1
  O  O19  1  0.10064287  0.38080146  0.15361927  1
  O  O20  1  0.10106495  0.08176244  0.25015175  1
  O  O21  1  0.06305454  0.69929453  0.31989411  1
  O  O22  1  0.26081853  0.65017349  0.19237483  1
  O  O23  1  0.07937570  0.34286796  0.47491496  1
  O  O24  1  0.40474349  0.35231185  0.13995616  1
  O  O25  1  0.26361578  0.29828511  0.34067009  1
  O  O26  1  0.23049592  0.93424652  0.41603091  1
  O  O27  1  0.60306476  0.29910523  0.01340602  1
  O  O28  1  0.76748067  0.12363268  0.98447836  1
  O  O29  1  0.22766401  0.63499537  0.50865458  1
  O  O30  1  0.10448260  0.12793392  0.65225071  1
  O  O31  1  0.56549609  0.62268734  0.18105154  1
  O  O32  1  0.43021094  0.12419118  0.31776525  1
  O  O33  1  0.10140357  0.42799434  0.75049338  1
  O  O34  1  0.06815969  0.80253808  0.83023229  1
  O  O35  1  0.42722362  0.42279921  0.41599256  1
  O  O36  1  0.39501055  0.80394446  0.48571839  1
  O  O37  1  0.77220014  0.42105220  0.08161033  1
  O  O38  1  0.73023733  0.79935581  0.15657659  1
  O  O39  1  0.25697582  0.86011732  0.69119442  1
  O  O40  1  0.59000209  0.86025008  0.35604758  1
  O  O41  1  0.92631836  0.85450585  0.02878436  1
  O  O42  1  0.07565970  0.14644802  0.97715413  1
  O  O43  1  0.40775303  0.14100630  0.63933180  1
  O  O44  1  0.27115153  0.19735634  0.84679029  1
  O  O45  1  0.74744904  0.15634743  0.30474640  1
  O  O46  1  0.23830351  0.58039608  0.91632814  1
  O  O47  1  0.59927961  0.20058587  0.50213521  1
  O  O48  1  0.56840140  0.57198124  0.58116441  1
  O  O49  1  0.93422206  0.20370584  0.17686095  1
  O  O50  1  0.89863325  0.56683685  0.25172831  1
  O  O51  1  0.56333661  0.87130279  0.68108146  1
  O  O52  1  0.43881893  0.36508147  0.82280627  1
  O  O53  1  0.89597534  0.86522275  0.34698424  1
  O  O54  1  0.76971417  0.37066532  0.48365799  1
  O  O55  1  0.43549335  0.06529931  0.91368613  1
  O  O56  1  0.73372162  0.70118332  0.66074121  1
  P  P57  1  0.94948802  0.80405627  0.86249372  1
  P  P58  1  0.72058710  0.29990935  0.97358984  1
  P  P59  1  0.94594592  0.69177612  0.36194701  1
  P  P60  1  0.61674865  0.69229364  0.68526926  1
  P  P61  1  0.71637858  0.19147674  0.47808752  1
  P  P62  1  0.38818622  0.19161134  0.80565873  1
  P  P63  1  0.61236302  0.79956948  0.19253262  1
  P  P64  1  0.27786878  0.80914561  0.52507285  1
  P  P65  1  0.38328997  0.30012402  0.30590190  1
  P  P66  1  0.05338011  0.20488140  0.14098571  1
  P  P67  1  0.05124316  0.30701150  0.64900762  1
  P  P68  1  0.28255770  0.70244787  0.02665514  1
  Ni  Ni69  1  0.16601820  0.50782630  0.32924374  1
  Ni  Ni70  1  0.50038603  0.49281757  0.00377807  1
  Ni  Ni71  1  0.15935285  0.13990642  0.44011500  1
  Ni  Ni72  1  0.16993107  1.00055395  0.84030294  1
  Ni  Ni73  1  0.49578008  0.00261738  0.49240752  1
  Ni  Ni74  1  0.83335159  0.99461032  0.16436417  1
  Ni  Ni75  1  0.82789111  0.36027552  0.27279978  1
  Ni  Ni76  1  0.50662080  0.85963059  0.89138859  1
  Ni  Ni77  1  0.83620075  0.50235392  0.67363452  1
