# generated using pymatgen
data_Li6Co5(P2O7)4
_symmetry_space_group_name_H-M   'P 1'
_cell_length_a   13.01801491
_cell_length_b   9.17273915
_cell_length_c   10.48701140
_cell_angle_alpha   65.67996356
_cell_angle_beta   87.44450774
_cell_angle_gamma   73.45102601
_symmetry_Int_Tables_number   1
_chemical_formula_structural   Li6Co5(P2O7)4
_chemical_formula_sum   'Li12 Co10 P16 O56'
_cell_volume   1090.06970732
_cell_formula_units_Z   2
loop_
 _symmetry_equiv_pos_site_id
 _symmetry_equiv_pos_as_xyz
  1  'x, y, z'
loop_
 _atom_site_type_symbol
 _atom_site_label
 _atom_site_symmetry_multiplicity
 _atom_site_fract_x
 _atom_site_fract_y
 _atom_site_fract_z
 _atom_site_occupancy
  Li  Li0  1  0.03518828  0.85562045  0.99863643  1
  Li  Li1  1  0.82472197  0.93255606  0.12173816  1
  Li  Li2  1  0.86198785  0.17753115  0.44070776  1
  Li  Li3  1  0.75000117  0.49999993  0.49999935  1
  Li  Li4  1  0.63801200  0.82246674  0.55929580  1
  Li  Li5  1  0.67527770  0.06744515  0.87826105  1
  Li  Li6  1  0.46480946  0.14438465  0.00135666  1
  Li  Li7  1  0.31421007  0.91071256  0.13089475  1
  Li  Li8  1  0.44292264  0.09180599  0.42904494  1
  Li  Li9  1  0.25001126  0.50000388  0.50000385  1
  Li  Li10  1  0.05707693  0.90818848  0.57095731  1
  Li  Li11  1  0.18579093  0.08929307  0.86910059  1
  O  O12  1  0.54389119  0.27133881  0.60046185  1
  O  O13  1  0.79603724  0.68994133  0.54144631  1
  O  O14  1  0.77583246  0.92666773  0.30081201  1
  O  O15  1  0.94419668  0.07562645  0.64458524  1
  O  O16  1  0.81223823  0.86061626  0.96734454  1
  O  O17  1  0.99712496  0.26592377  0.17486916  1
  O  O18  1  0.86701461  0.93464800  0.50749388  1
  O  O19  1  0.98292080  0.44422220  0.82295840  1
  O  O20  1  0.95610966  0.72865812  0.39953848  1
  O  O21  1  0.98540252  0.92909353  0.15023663  1
  O  O22  1  0.01074453  0.10782423  0.85476558  1
  O  O23  1  0.03975624  0.29173413  0.60155134  1
  O  O24  1  0.02240630  0.50974720  0.21970044  1
  O  O25  1  0.12460073  0.09888018  0.48228744  1
  O  O26  1  0.01396641  0.72995645  0.75567375  1
  O  O27  1  0.17535578  0.15167134  0.03308998  1
  O  O28  1  0.05919720  0.93125766  0.37143794  1
  O  O29  1  0.12591186  0.47004590  0.95529640  1
  O  O30  1  0.21943553  0.08407162  0.69417396  1
  O  O31  1  0.19908806  0.33667650  0.45903593  1
  O  O32  1  0.15635560  0.50678080  0.70764521  1
  O  O33  1  0.22496850  0.28179736  0.18596917  1
  O  O34  1  0.13971486  0.68044733  0.31559928  1
  O  O35  1  0.17927584  0.70028538  0.03872193  1
  O  O36  1  0.32072390  0.29971867  0.96127378  1
  O  O37  1  0.36028122  0.31956389  0.68439672  1
  O  O38  1  0.27502939  0.71819855  0.81403176  1
  O  O39  1  0.34364681  0.49321494  0.29236216  1
  O  O40  1  0.30091395  0.66331080  0.54096732  1
  O  O41  1  0.28056785  0.91593091  0.30582346  1
  O  O42  1  0.37408797  0.52995156  0.04470299  1
  O  O43  1  0.44080822  0.06873491  0.62856505  1
  O  O44  1  0.32464350  0.84832657  0.96690928  1
  O  O45  1  0.48603434  0.27004185  0.24432978  1
  O  O46  1  0.51459540  0.07090585  0.84976007  1
  O  O47  1  0.37539560  0.90111492  0.51771378  1
  O  O48  1  0.47758841  0.49024668  0.78028828  1
  O  O49  1  0.88076749  0.54769982  0.04347530  1
  O  O50  1  0.46024432  0.70826712  0.39844734  1
  O  O51  1  0.51707566  0.55578275  0.17704394  1
  O  O52  1  0.63299082  0.06534973  0.49250540  1
  O  O53  1  0.48925800  0.89217701  0.14523213  1
  O  O54  1  0.50287239  0.73407453  0.82513060  1
  O  O55  1  0.68776273  0.13938377  0.03265642  1
  O  O56  1  0.55580475  0.92437350  0.35541568  1
  O  O57  1  0.61923395  0.45229837  0.95652667  1
  O  O58  1  0.72416964  0.07333247  0.69918873  1
  O  O59  1  0.70396488  0.31005894  0.45855457  1
  O  O60  1  0.64258119  0.59419319  0.69865928  1
  O  O61  1  0.85742419  0.40581050  0.30134062  1
  O  O62  1  0.64675345  0.65977107  0.32248147  1
  O  O63  1  0.68141038  0.68233840  0.04132090  1
  O  O64  1  0.81859020  0.31766055  0.95868069  1
  O  O65  1  0.85324727  0.34022831  0.67751880  1
  O  O66  1  0.77987482  0.72073969  0.81579402  1
  O  O67  1  0.72012612  0.27926148  0.18420641  1
  P  P68  1  0.34775414  0.79966040  0.44659219  1
  P  P69  1  0.43333713  0.45753013  0.20227797  1
  P  P70  1  0.45908242  0.17832396  0.69677635  1
  P  P71  1  0.55618679  0.57108677  0.80359635  1
  P  P72  1  0.65505610  0.17576147  0.55888877  1
  P  P73  1  0.54229697  0.79887486  0.29997731  1
  P  P74  1  0.71677010  0.29031009  0.03279144  1
  P  P75  1  0.78322879  0.70969293  0.96720683  1
  P  P76  1  0.95770234  0.20112386  0.70002370  1
  P  P77  1  0.84494305  0.82423961  0.44111314  1
  P  P78  1  0.06665843  0.54247025  0.79772673  1
  P  P79  1  0.15224712  0.20034001  0.55340232  1
  P  P80  1  0.04091654  0.82167388  0.30322075  1
  P  P81  1  0.21724181  0.29595451  0.03464461  1
  P  P82  1  0.28275430  0.70404719  0.96535845  1
  P  P83  1  0.94381472  0.42891220  0.19640534  1
  Co  Co84  1  0.86337145  0.89643154  0.71907475  1
  Co  Co85  1  0.98737798  0.21152751  0.00509642  1
  Co  Co86  1  0.81643056  0.51993382  0.75521551  1
  Co  Co87  1  0.68356771  0.48006697  0.24478478  1
  Co  Co88  1  0.51262171  0.78847114  0.99490058  1
  Co  Co89  1  0.63662792  0.10356906  0.28092635  1
  Co  Co90  1  0.35499763  0.89910137  0.71155161  1
  Co  Co91  1  0.31829383  0.50462204  0.75369607  1
  Co  Co92  1  0.18169283  0.49538763  0.24632080  1
  Co  Co93  1  0.14500480  0.10089514  0.28844694  1
