# generated using pymatgen
data_Li13In3
_symmetry_space_group_name_H-M   'P 1'
_cell_length_a   9.34496821
_cell_length_b   9.34496789
_cell_length_c   9.34496979
_cell_angle_alpha   60.00000049
_cell_angle_beta   60.00000166
_cell_angle_gamma   59.99999791
_symmetry_Int_Tables_number   1
_chemical_formula_structural   Li13In3
_chemical_formula_sum   'Li26 In6'
_cell_volume   577.05677753
_cell_formula_units_Z   2
loop_
 _symmetry_equiv_pos_site_id
 _symmetry_equiv_pos_as_xyz
  1  'x, y, z'
loop_
 _atom_site_type_symbol
 _atom_site_label
 _atom_site_symmetry_multiplicity
 _atom_site_fract_x
 _atom_site_fract_y
 _atom_site_fract_z
 _atom_site_occupancy
  Li  Li0  1  0.87500000  0.87500000  0.87500000  1
  Li  Li1  1  0.12500000  0.12500000  0.12500000  1
  Li  Li2  1  0.50000000  0.50000000  0.50000000  1
  Li  Li3  1  0.50000000  0.50000000  0.00000000  1
  Li  Li4  1  -0.00000000  0.50000000  0.50000000  1
  Li  Li5  1  0.50000000  0.00000000  0.50000000  1
  Li  Li6  1  0.24427176  0.24427176  0.24427176  1
  Li  Li7  1  0.75572824  0.75572824  0.23281728  1
  Li  Li8  1  0.23281728  0.75572824  0.75572824  1
  Li  Li9  1  0.75572824  0.23281728  0.75572824  1
  Li  Li10  1  0.76718272  0.24427176  0.24427176  1
  Li  Li11  1  0.24427176  0.76718272  0.24427176  1
  Li  Li12  1  0.24427176  0.24427176  0.76718272  1
  Li  Li13  1  0.75572824  0.75572824  0.75572824  1
  Li  Li14  1  0.62183863  0.12816137  0.12816137  1
  Li  Li15  1  0.87183863  0.87183863  0.37816137  1
  Li  Li16  1  0.37816137  0.37816137  0.87183863  1
  Li  Li17  1  0.87183863  0.37816137  0.37816137  1
  Li  Li18  1  0.87183863  0.37816137  0.87183863  1
  Li  Li19  1  0.37816137  0.87183863  0.37816137  1
  Li  Li20  1  0.12816137  0.62183863  0.12816137  1
  Li  Li21  1  0.12816137  0.12816137  0.62183863  1
  Li  Li22  1  0.62183863  0.62183863  0.12816137  1
  Li  Li23  1  0.62183863  0.12816137  0.62183863  1
  Li  Li24  1  0.37816137  0.87183863  0.87183863  1
  Li  Li25  1  0.12816137  0.62183863  0.62183863  1
  In  In26  1  0.37500000  0.37500000  0.37500000  1
  In  In27  1  0.62500000  0.62500000  0.62500000  1
  In  In28  1  -0.00000000  0.00000000  0.00000000  1
  In  In29  1  -0.00000000  0.00000000  0.50000000  1
  In  In30  1  0.50000000  0.00000000  0.00000000  1
  In  In31  1  -0.00000000  0.50000000  0.00000000  1
