# generated using pymatgen
data_LiAl5O8
_symmetry_space_group_name_H-M   'P 1'
_cell_length_a   7.89825601
_cell_length_b   7.89825601
_cell_length_c   7.89825601
_cell_angle_alpha   90.00000000
_cell_angle_beta   90.00000000
_cell_angle_gamma   90.00000000
_symmetry_Int_Tables_number   1
_chemical_formula_structural   LiAl5O8
_chemical_formula_sum   'Li4 Al20 O32'
_cell_volume   492.71254483
_cell_formula_units_Z   4
loop_
 _symmetry_equiv_pos_site_id
 _symmetry_equiv_pos_as_xyz
  1  'x, y, z'
loop_
 _atom_site_type_symbol
 _atom_site_label
 _atom_site_symmetry_multiplicity
 _atom_site_fract_x
 _atom_site_fract_y
 _atom_site_fract_z
 _atom_site_occupancy
  Li  Li0  1  0.12500000  0.87500000  0.37500000  1
  Li  Li1  1  0.37500000  0.12500000  0.87500000  1
  Li  Li2  1  0.62500000  0.62500000  0.62500000  1
  Li  Li3  1  0.87500000  0.37500000  0.12500000  1
  Al  Al4  1  0.99781007  0.99781007  0.99781007  1
  Al  Al5  1  0.00218993  0.49781007  0.50218993  1
  Al  Al6  1  0.11884179  0.62500000  0.13115821  1
  Al  Al7  1  0.12500000  0.36884179  0.88115821  1
  Al  Al8  1  0.13115821  0.11884179  0.62500000  1
  Al  Al9  1  0.24781007  0.74781007  0.75218993  1
  Al  Al10  1  0.25218993  0.25218993  0.25218993  1
  Al  Al11  1  0.36884179  0.88115821  0.12500000  1
  Al  Al12  1  0.37500000  0.63115821  0.38115821  1
  Al  Al13  1  0.38115821  0.37500000  0.63115821  1
  Al  Al14  1  0.49781007  0.50218993  0.00218993  1
  Al  Al15  1  0.50218993  0.00218993  0.49781007  1
  Al  Al16  1  0.61884179  0.87500000  0.86884179  1
  Al  Al17  1  0.62500000  0.13115821  0.11884179  1
  Al  Al18  1  0.63115821  0.38115821  0.37500000  1
  Al  Al19  1  0.74781007  0.75218993  0.24781007  1
  Al  Al20  1  0.75218993  0.24781007  0.74781007  1
  Al  Al21  1  0.86884179  0.61884179  0.87500000  1
  Al  Al22  1  0.87500000  0.86884179  0.61884179  1
  Al  Al23  1  0.88115821  0.12500000  0.36884179  1
  O  O24  1  0.61462785  0.88537215  0.11462785  1
  O  O25  1  0.61523549  0.61493690  0.36742362  1
  O  O26  1  0.86462785  0.86462785  0.86462785  1
  O  O27  1  0.86523549  0.11742362  0.13506310  1
  O  O28  1  0.86742362  0.88476451  0.38506310  1
  O  O29  1  0.88506310  0.63257638  0.11523549  1
  O  O30  1  0.11462785  0.61462785  0.88537215  1
  O  O31  1  0.11493690  0.13257638  0.38476451  1
  O  O32  1  0.11523549  0.88506310  0.63257638  1
  O  O33  1  0.11742362  0.13506310  0.86523549  1
  O  O34  1  0.13257638  0.38476451  0.11493690  1
  O  O35  1  0.13506310  0.86523549  0.11742362  1
  O  O36  1  0.36462785  0.63537215  0.13537215  1
  O  O37  1  0.36493690  0.13476451  0.61742362  1
  O  O38  1  0.36523549  0.38257638  0.86493690  1
  O  O39  1  0.36742362  0.61523549  0.61493690  1
  O  O40  1  0.38257638  0.86493690  0.36523549  1
  O  O41  1  0.38476451  0.11493690  0.13257638  1
  O  O42  1  0.38506310  0.86742362  0.88476451  1
  O  O43  1  0.38537215  0.38537215  0.38537215  1
  O  O44  1  0.61493690  0.36742362  0.61523549  1
  O  O45  1  0.61742362  0.36493690  0.13476451  1
  O  O46  1  0.63257638  0.11523549  0.88506310  1
  O  O47  1  0.63476451  0.88257638  0.63506310  1
  O  O48  1  0.63506310  0.63476451  0.88257638  1
  O  O49  1  0.63537215  0.13537215  0.36462785  1
  O  O50  1  0.86493690  0.36523549  0.38257638  1
  O  O51  1  0.88257638  0.63506310  0.63476451  1
  O  O52  1  0.88476451  0.38506310  0.86742362  1
  O  O53  1  0.88537215  0.11462785  0.61462785  1
  O  O54  1  0.13476451  0.61742362  0.36493690  1
  O  O55  1  0.13537215  0.36462785  0.63537215  1
