# generated using pymatgen
data_Li34(YSb2)13
_symmetry_space_group_name_H-M   'P 1'
_cell_length_a   4.51594310
_cell_length_b   4.51594345
_cell_length_c   92.95942253
_cell_angle_alpha   90.00000000
_cell_angle_beta   90.00000000
_cell_angle_gamma   119.99999744
_symmetry_Int_Tables_number   1
_chemical_formula_structural   Li34(YSb2)13
_chemical_formula_sum   'Li34 Y13 Sb26'
_cell_volume   1641.80289150
_cell_formula_units_Z   1
loop_
 _symmetry_equiv_pos_site_id
 _symmetry_equiv_pos_as_xyz
  1  'x, y, z'
loop_
 _atom_site_type_symbol
 _atom_site_label
 _atom_site_symmetry_multiplicity
 _atom_site_fract_x
 _atom_site_fract_y
 _atom_site_fract_z
 _atom_site_occupancy
  Li  Li0  1  0.00000000  0.00000000  0.11730542  1
  Li  Li1  1  0.00000000  0.00000000  0.34814577  1
  Li  Li2  1  0.00000000  0.00000000  0.57688659  1
  Li  Li3  1  0.00000000  0.00000000  0.80870312  1
  Li  Li4  1  0.00000000  0.00000000  0.03684804  1
  Li  Li5  1  0.00000000  0.00000000  0.19385668  1
  Li  Li6  1  0.33333300  0.66666700  0.05079873  1
  Li  Li7  1  0.00000000  0.00000000  0.26900309  1
  Li  Li8  1  0.33333300  0.66666700  0.28048932  1
  Li  Li9  1  0.00000000  0.00000000  0.42192230  1
  Li  Li10  1  0.33333300  0.66666700  0.43393510  1
  Li  Li11  1  0.33333300  0.66666700  0.51131118  1
  Li  Li12  1  0.33333300  0.66666700  0.58837590  1
  Li  Li13  1  0.00000000  0.00000000  0.65391579  1
  Li  Li14  1  0.00000000  0.00000000  0.73119490  1
  Li  Li15  1  0.33333300  0.66666700  0.66534326  1
  Li  Li16  1  0.33333300  0.66666700  0.74252845  1
  Li  Li17  1  0.33333300  0.66666700  0.82003701  1
  Li  Li18  1  0.33333300  0.66666700  0.97325710  1
  Li  Li19  1  0.66666700  0.33333300  0.18007796  1
  Li  Li20  1  0.66666700  0.33333300  0.33443458  1
  Li  Li21  1  0.66666700  0.33333300  0.41082217  1
  Li  Li22  1  0.66666700  0.33333300  0.10351758  1
  Li  Li23  1  0.66666700  0.33333300  0.25730622  1
  Li  Li24  1  0.66666700  0.33333300  0.48830332  1
  Li  Li25  1  0.66666700  0.33333300  0.56547000  1
  Li  Li26  1  0.66666700  0.33333300  0.64241775  1
  Li  Li27  1  0.66666700  0.33333300  0.87328870  1
  Li  Li28  1  0.66666700  0.33333300  0.71949699  1
  Li  Li29  1  0.66666700  0.33333300  0.79655815  1
  Li  Li30  1  0.00000000  0.00000000  0.88720193  1
  Li  Li31  1  0.66666700  0.33333300  0.95035205  1
  Li  Li32  1  0.00000000  0.00000000  0.49962844  1
  Li  Li33  1  0.00000000  0.00000000  0.96172453  1
  Sb  Sb34  1  0.33333300  0.66666700  0.02038123  1
  Sb  Sb35  1  0.33333300  0.66666700  0.09616979  1
  Sb  Sb36  1  0.33333300  0.66666700  0.17187950  1
  Sb  Sb37  1  0.33333300  0.66666700  0.24919524  1
  Sb  Sb38  1  0.33333300  0.66666700  0.32635120  1
  Sb  Sb39  1  0.33333300  0.66666700  0.40320534  1
  Sb  Sb40  1  0.33333300  0.66666700  0.48047389  1
  Sb  Sb41  1  0.33333300  0.66666700  0.55758850  1
  Sb  Sb42  1  0.33333300  0.66666700  0.63453914  1
  Sb  Sb43  1  0.33333300  0.66666700  0.71159082  1
  Sb  Sb44  1  0.33333300  0.66666700  0.78865204  1
  Sb  Sb45  1  0.33333300  0.66666700  0.86514062  1
  Sb  Sb46  1  0.33333300  0.66666700  0.94219880  1
  Sb  Sb47  1  0.66666700  0.33333300  0.05859052  1
  Sb  Sb48  1  0.66666700  0.33333300  0.13384565  1
  Sb  Sb49  1  0.66666700  0.33333300  0.21039944  1
  Sb  Sb50  1  0.66666700  0.33333300  0.28817360  1
  Sb  Sb51  1  0.66666700  0.33333300  0.36469718  1
  Sb  Sb52  1  0.66666700  0.33333300  0.44193906  1
  Sb  Sb53  1  0.66666700  0.33333300  0.51919159  1
  Sb  Sb54  1  0.66666700  0.33333300  0.59618724  1
  Sb  Sb55  1  0.66666700  0.33333300  0.67317490  1
  Sb  Sb56  1  0.66666700  0.33333300  0.75027050  1
  Sb  Sb57  1  0.66666700  0.33333300  0.82711528  1
  Sb  Sb58  1  0.66666700  0.33333300  0.90355021  1
  Sb  Sb59  1  0.66666700  0.33333300  0.98144406  1
  Y  Y60  1  0.00000000  0.00000000  0.00103709  1
  Y  Y61  1  0.00000000  0.00000000  0.07724313  1
  Y  Y62  1  0.00000000  0.00000000  0.15309879  1
  Y  Y63  1  0.00000000  0.00000000  0.30779806  1
  Y  Y64  1  0.00000000  0.00000000  0.53836435  1
  Y  Y65  1  0.00000000  0.00000000  0.61538187  1
  Y  Y66  1  0.00000000  0.00000000  0.84682539  1
  Y  Y67  1  0.00000000  0.00000000  0.22967229  1
  Y  Y68  1  0.00000000  0.00000000  0.46105913  1
  Y  Y69  1  0.00000000  0.00000000  0.69244066  1
  Y  Y70  1  0.00000000  0.00000000  0.92265267  1
  Y  Y71  1  0.00000000  0.00000000  0.38353831  1
  Y  Y72  1  0.00000000  0.00000000  0.76963876  1
