# generated using pymatgen
data_Li2UBr6
_symmetry_space_group_name_H-M   'P 1'
_cell_length_a   6.96711062
_cell_length_b   6.96711029
_cell_length_c   41.24561583
_cell_angle_alpha   90.00000000
_cell_angle_beta   90.00000000
_cell_angle_gamma   120.00000155
_symmetry_Int_Tables_number   1
_chemical_formula_structural   Li2UBr6
_chemical_formula_sum   'Li12 U6 Br36'
_cell_volume   1733.85912739
_cell_formula_units_Z   6
loop_
 _symmetry_equiv_pos_site_id
 _symmetry_equiv_pos_as_xyz
  1  'x, y, z'
loop_
 _atom_site_type_symbol
 _atom_site_label
 _atom_site_symmetry_multiplicity
 _atom_site_fract_x
 _atom_site_fract_y
 _atom_site_fract_z
 _atom_site_occupancy
  Br  Br0  1  1.00008601  0.66728089  0.28778084  1
  Br  Br1  1  0.99916053  0.66595011  0.62114417  1
  Br  Br2  1  -0.00043961  0.66599447  0.95445521  1
  Br  Br3  1  0.33271911  -0.00008601  0.21221916  1
  Br  Br4  1  0.33400553  1.00043961  0.54554479  1
  Br  Br5  1  0.33404989  0.00083947  0.87885583  1
  Br  Br6  1  1.00008601  0.33280512  0.21221916  1
  Br  Br7  1  -0.00043961  0.33356592  0.54554479  1
  Br  Br8  1  0.99916053  0.33321042  0.87885583  1
  Br  Br9  1  0.33271911  0.33280512  0.28778084  1
  Br  Br10  1  0.33404989  0.33321042  0.62114417  1
  Br  Br11  1  0.33400553  0.33356592  0.95445521  1
  Br  Br12  1  0.33321042  0.33404989  0.12114417  1
  Br  Br13  1  0.33356592  0.33400553  0.45445521  1
  Br  Br14  1  0.33280512  0.33271911  0.78778084  1
  Br  Br15  1  0.66719488  -0.00008601  0.28778084  1
  Br  Br16  1  0.66643408  1.00043961  0.95445521  1
  Br  Br17  1  0.66678958  0.00083947  0.62114417  1
  Br  Br18  1  0.33356592  -0.00043961  0.04554479  1
  Br  Br19  1  0.33321042  0.99916053  0.37885583  1
  Br  Br20  1  0.33280512  1.00008601  0.71221916  1
  Br  Br21  1  0.66643408  0.66599447  0.54554479  1
  Br  Br22  1  0.66719488  0.66728089  0.21221916  1
  Br  Br23  1  0.66678958  0.66595011  0.87885583  1
  Br  Br24  1  0.66599447  0.66643408  0.04554479  1
  Br  Br25  1  0.66595011  0.66678958  0.37885583  1
  Br  Br26  1  0.66728089  0.66719488  0.71221916  1
  Br  Br27  1  0.00083947  0.66678958  0.12114417  1
  Br  Br28  1  1.00043961  0.66643408  0.45445521  1
  Br  Br29  1  -0.00008601  0.66719488  0.78778084  1
  Br  Br30  1  0.66595011  0.99916053  0.12114417  1
  Br  Br31  1  0.66599447  -0.00043961  0.45445521  1
  Br  Br32  1  0.66728089  1.00008601  0.78778084  1
  Br  Br33  1  1.00043961  0.33400553  0.04554479  1
  Br  Br34  1  0.00083947  0.33404989  0.37885583  1
  Br  Br35  1  -0.00008601  0.33271911  0.71221916  1
  Li  Li36  1  0.33333300  0.66666700  0.75000000  1
  Li  Li37  1  0.33333300  0.66666700  0.91595254  1
  Li  Li38  1  0.33333300  0.66666700  0.58404746  1
  Li  Li39  1  0.33333300  0.66666700  0.25000000  1
  Li  Li40  1  0.66666700  0.33333300  0.25000000  1
  Li  Li41  1  0.66666700  0.33333300  0.08404746  1
  Li  Li42  1  0.66666700  0.33333300  0.41595254  1
  Li  Li43  1  0.66666700  0.33333300  0.75000000  1
  Li  Li44  1  0.00000000  0.00000000  0.08270731  1
  Li  Li45  1  0.00000000  0.00000000  0.41729269  1
  Li  Li46  1  0.00000000  0.00000000  0.58270731  1
  Li  Li47  1  0.00000000  0.00000000  0.91729269  1
  U  U48  1  0.00000000  0.00000000  0.25000000  1
  U  U49  1  0.33333300  0.66666700  0.08331683  1
  U  U50  1  0.33333300  0.66666700  0.41668317  1
  U  U51  1  0.66666700  0.33333300  0.58331683  1
  U  U52  1  0.66666700  0.33333300  0.91668317  1
  U  U53  1  0.00000000  0.00000000  0.75000000  1
