# generated using pymatgen
data_Li5GeN3
_symmetry_space_group_name_H-M   'P 1'
_cell_length_a   8.31065800
_cell_length_b   8.37236164
_cell_length_c   21.11018592
_cell_angle_alpha   97.62779485
_cell_angle_beta   97.52950307
_cell_angle_gamma   109.22785438
_symmetry_Int_Tables_number   1
_chemical_formula_structural   Li5GeN3
_chemical_formula_sum   'Li80 Ge16 N48'
_cell_volume   1350.45623508
_cell_formula_units_Z   16
loop_
 _symmetry_equiv_pos_site_id
 _symmetry_equiv_pos_as_xyz
  1  'x, y, z'
loop_
 _atom_site_type_symbol
 _atom_site_label
 _atom_site_symmetry_multiplicity
 _atom_site_fract_x
 _atom_site_fract_y
 _atom_site_fract_z
 _atom_site_occupancy
  Li  Li0  1  0.39779600  0.88795600  0.06738000  1
  Li  Li1  1  0.90666000  0.88488100  0.08499000  1
  Li  Li2  1  0.17567400  0.65633100  0.08063400  1
  Li  Li3  1  0.32293200  0.57204400  0.17504300  1
  Li  Li4  1  0.01480300  0.52312000  0.24544800  1
  Li  Li5  1  0.66602000  0.64835700  0.08039900  1
  Li  Li6  1  0.42580600  0.66547800  0.33858500  1
  Li  Li7  1  0.52133100  0.51825300  0.25628400  1
  Li  Li8  1  0.41010600  0.44952300  0.08702500  1
  Li  Li9  1  0.08643700  0.32742000  0.17687800  1
  Li  Li10  1  0.56892000  0.54787000  0.41668900  1
  Li  Li11  1  0.83888100  0.33198800  0.42109600  1
  Li  Li12  1  0.83873400  0.61976400  0.17423900  1
  Li  Li13  1  0.84794600  0.08013700  0.15387100  1
  Li  Li14  1  0.99992500  0.27307400  0.50653500  1
  Li  Li15  1  0.71882900  0.19475200  0.59244800  1
  Li  Li16  1  0.33673800  0.31855700  0.42865000  1
  Li  Li17  1  0.57830500  0.36651800  0.16358500  1
  Li  Li18  1  0.28445100  0.24896500  0.23777000  1
  Li  Li19  1  0.90042300  0.13708100  0.33224900  1
  Li  Li20  1  0.67859100  0.41909100  0.33865900  1
  Li  Li21  1  0.06980000  0.33265600  0.67842500  1
  Li  Li22  1  0.72637300  0.23085400  0.73824900  1
  Li  Li23  1  0.07236000  0.11439900  0.42707400  1
  Li  Li24  1  0.76048800  0.00242700  0.51027000  1
  Li  Li25  1  0.59350100  0.06950400  0.91850800  1
  Li  Li26  1  0.42566200  0.19664100  0.33305000  1
  Li  Li27  1  0.23308700  0.21571200  0.75416800  1
  Li  Li28  1  0.51440400  0.98543300  0.75205400  1
  Li  Li29  1  0.00657100  0.01490600  0.23754500  1
  Li  Li30  1  0.63811000  0.14315700  0.08970000  1
  Li  Li31  1  0.35873900  0.07644100  0.15994000  1
  Li  Li32  1  0.51413500  0.26835600  0.51617100  1
  Li  Li33  1  0.84167400  0.06298900  0.66848800  1
  Li  Li34  1  0.49742300  0.73734600  0.48921900  1
  Li  Li35  1  0.47763700  0.00692500  0.25089200  1
  Li  Li36  1  0.76830800  0.76858800  0.25708900  1
  Li  Li37  1  0.66900500  0.91479800  0.84507500  1
  Li  Li38  1  0.36083700  0.84548000  0.92006900  1
  Li  Li39  1  0.00538400  0.97653500  0.75011900  1
  Li  Li40  1  0.58175000  0.81648500  0.66351300  1
  Li  Li41  1  0.73485600  0.97860600  0.00649300  1
  Li  Li42  1  0.24906600  0.01051400  0.49190900  1
  Li  Li43  1  0.34963900  0.08175600  0.67834700  1
  Li  Li44  1  0.92261700  0.90688500  0.58203900  1
  Li  Li45  1  0.11132600  0.83512700  0.16625100  1
  Li  Li46  1  0.84533700  0.85614800  0.92399800  1
  Li  Li47  1  0.26371800  0.74775100  0.25288300  1
  Li  Li48  1  0.91446600  0.64991200  0.32876400  1
  Li  Li49  1  0.09457300  0.84647600  0.66407200  1
  Li  Li50  1  0.74398100  0.78304200  0.75522100  1
  Li  Li51  1  0.42877900  0.66985300  0.84529900  1
  Li  Li52  1  0.63911400  0.90981500  0.32314800  1
  Li  Li53  1  0.67104000  0.68579600  0.57326300  1
  Li  Li54  1  0.30324400  0.79980600  0.41825500  1
  Li  Li55  1  0.00171100  0.74484400  0.49749600  1
  Li  Li56  1  0.18115300  0.94667500  0.84500500  1
  Li  Li57  1  0.49669700  0.72172400  0.99333900  1
  Li  Li58  1  0.18075200  0.42076700  0.82283400  1
  Li  Li59  1  0.43605900  0.45847100  0.58372300  1
  Li  Li60  1  0.06867300  0.56287800  0.41906700  1
  Li  Li61  1  0.15894300  0.67227900  0.57266200  1
  Li  Li62  1  0.91029500  0.70501300  0.83423900  1
  Li  Li63  1  0.00134700  0.75061800  0.00399000  1
  Li  Li64  1  0.24497400  0.47617300  0.99448600  1
  Li  Li65  1  0.61184700  0.59642000  0.91261500  1
  Li  Li66  1  0.76476500  0.50039500  0.50173500  1
  Li  Li67  1  0.24043600  0.50162800  0.49900600  1
  Li  Li68  1  0.93763100  0.43238000  0.58345300  1
  Li  Li69  1  0.56476600  0.31276700  0.65503800  1
  Li  Li70  1  0.75625800  0.51806000  0.99641900  1
  Li  Li71  1  0.30048400  0.58082000  0.65483900  1
  Li  Li72  1  0.34502700  0.34772900  0.90488900  1
  Li  Li73  1  0.96562000  0.48006500  0.76035700  1
  Li  Li74  1  0.68515500  0.41795700  0.83042600  1
  Li  Li75  1  0.80836700  0.33290400  0.91604700  1
  Li  Li76  1  0.10134200  0.10473100  0.92282000  1
  Li  Li77  1  0.44475100  0.16448800  0.83362600  1
  Li  Li78  1  0.96584100  0.23166500  0.99083500  1
  Li  Li79  1  0.23295000  0.97382800  0.99002100  1
  Ge  Ge80  1  0.90265100  0.41275800  0.08671400  1
  Ge  Ge81  1  0.75078700  0.24761400  0.24360200  1
  Ge  Ge82  1  0.17122500  0.40501800  0.32983100  1
  Ge  Ge83  1  0.56681000  0.08116300  0.42164000  1
  Ge  Ge84  1  0.15201300  0.15656500  0.08056800  1
  Ge  Ge85  1  0.17949800  0.18082100  0.58585700  1
  Ge  Ge86  1  0.42969800  0.92762900  0.58231000  1
  Ge  Ge87  1  0.15498300  0.93132600  0.33388900  1
  Ge  Ge88  1  0.23225200  0.74180400  0.75550800  1
  Ge  Ge89  1  0.81086800  0.82516400  0.41374500  1
  Ge  Ge90  1  0.57511800  0.83031100  0.16290800  1
  Ge  Ge91  1  0.07787500  0.58349400  0.91413600  1
  Ge  Ge92  1  0.82021000  0.59315700  0.66648300  1
  Ge  Ge93  1  0.48021800  0.49087400  0.74592500  1
  Ge  Ge94  1  0.48792500  0.25873300  0.99984400  1
  Ge  Ge95  1  0.91155400  0.16739400  0.82921300  1
  N  N96  1  0.65449700  0.90105500  0.08927300  1
  N  N97  1  0.92228100  0.63956000  0.08783700  1
  N  N98  1  0.58781500  0.61432700  0.17254800  1
  N  N99  1  0.83255900  0.33767700  0.16819100  1
  N  N100  1  0.67797400  0.67714900  0.33847100  1
  N  N101  1  0.30700700  0.54896900  0.40717800  1
  N  N102  1  0.25178500  0.48715200  0.25786800  1
  N  N103  1  0.13116200  0.39012700  0.08436400  1
  N  N104  1  0.92277200  0.38980900  0.32188100  1
  N  N105  1  0.58218400  0.30591600  0.42087800  1
  N  N106  1  0.25422300  0.25699500  0.51196200  1
  N  N107  1  0.53553300  0.26272300  0.24957000  1
  N  N108  1  0.73481800  0.25899100  0.01295800  1
  N  N109  1  0.39827900  0.18364600  0.07790200  1
  N  N110  1  0.49665500  0.99432100  0.49748600  1
  N  N111  1  0.32833400  0.33388600  0.66689200  1
  N  N112  1  0.16211100  0.16521000  0.33456800  1
  N  N113  1  0.95110500  0.16547300  0.58818200  1
  N  N114  1  0.98801100  0.23721900  0.75437600  1
  N  N115  1  0.10384200  0.08659700  0.15875500  1
  N  N116  1  0.57947400  0.06987500  0.65623200  1
  N  N117  1  0.25880400  0.96979300  0.75354600  1
  N  N118  1  0.79260500  0.05689300  0.41334200  1
  N  N119  1  0.92688300  0.95120700  0.83760400  1
  N  N120  1  0.74144100  0.01261800  0.24184300  1
  N  N121  1  0.39678500  0.93170800  0.34369700  1
  N  N122  1  0.19743100  0.94620300  0.58295900  1
  N  N123  1  0.06355100  0.85619000  0.40954000  1
  N  N124  1  0.02631800  0.77960000  0.25822100  1
  N  N125  1  0.35134700  0.82880000  0.16734700  1
  N  N126  1  0.15990000  0.66864100  0.83335200  1
  N  N127  1  0.00856700  0.00970700  0.00734600  1
  N  N128  1  0.83435800  0.81761800  0.66563400  1
  N  N129  1  0.45771800  0.71467600  0.74496200  1
  N  N130  1  0.59308500  0.83078000  0.92085800  1
  N  N131  1  0.23281300  0.72055900  0.98916100  1
  N  N132  1  0.75616100  0.75495800  0.49014900  1
  N  N133  1  0.41440400  0.69802100  0.57698500  1
  N  N134  1  0.85644100  0.58833100  0.91361800  1
  N  N135  1  0.68904100  0.43934300  0.59095400  1
  N  N136  1  0.72024900  0.51295500  0.74136700  1
  N  N137  1  0.06257700  0.58957700  0.67959000  1
  N  N138  1  0.00064300  0.50413100  0.49890200  1
  N  N139  1  0.49789800  0.48143400  0.99955000  1
  N  N140  1  0.42683400  0.41327300  0.82059000  1
  N  N141  1  0.07203000  0.34432700  0.90716700  1
  N  N142  1  0.35810800  0.10553200  0.92452100  1
  N  N143  1  0.68575000  0.16506400  0.83066700  1
