# generated using pymatgen
data_Li2GeF6
_symmetry_space_group_name_H-M   'P 1'
_cell_length_a   8.33342178
_cell_length_b   8.33341965
_cell_length_c   4.53554700
_cell_angle_alpha   90.00071438
_cell_angle_beta   89.99931692
_cell_angle_gamma   120.00052634
_symmetry_Int_Tables_number   1
_chemical_formula_structural   Li2GeF6
_chemical_formula_sum   'Li6 Ge3 F18'
_cell_volume   272.77503234
_cell_formula_units_Z   3
loop_
 _symmetry_equiv_pos_site_id
 _symmetry_equiv_pos_as_xyz
  1  'x, y, z'
loop_
 _atom_site_type_symbol
 _atom_site_label
 _atom_site_symmetry_multiplicity
 _atom_site_fract_x
 _atom_site_fract_y
 _atom_site_fract_z
 _atom_site_occupancy
  Li  Li0  1  0.70016651  0.00002253  0.50000526  1
  Li  Li1  1  0.63450144  0.63450269  -0.00000056  1
  Li  Li2  1  -0.00001739  0.36549328  -0.00001424  1
  Li  Li3  1  0.36549404  -0.00001681  0.00001495  1
  Li  Li4  1  0.00002163  0.70016602  0.49999526  1
  Li  Li5  1  0.29985126  0.29985242  0.50000039  1
  Ge  Ge6  1  0.66667389  0.33332565  0.51002798  1
  Ge  Ge7  1  0.33333417  0.66667755  0.48997137  1
  Ge  Ge8  1  -0.00000879  -0.00000526  -0.00000055  1
  F  F9  1  0.09724082  0.20692145  0.22331461  1
  F  F10  1  0.10968835  0.90276019  0.22328507  1
  F  F11  1  0.79308552  0.89031521  0.22330109  1
  F  F12  1  0.45951507  0.22239055  0.28580766  1
  F  F13  1  0.77760337  0.23711687  0.28583256  1
  F  F14  1  0.76288418  0.54047908  0.28581336  1
  F  F15  1  0.23711653  0.77760548  0.71417036  1
  F  F16  1  0.54047760  0.76288203  0.71418138  1
  F  F17  1  0.22239248  0.45951666  0.71419512  1
  F  F18  1  0.42174203  0.54885822  0.26487202  1
  F  F19  1  0.45113038  0.87287007  0.26488510  1
  F  F20  1  0.12711987  0.57825677  0.26487518  1
  F  F21  1  0.87287236  0.45113224  0.73511593  1
  F  F22  1  0.57825820  0.12712462  0.73512102  1
  F  F23  1  0.54885728  0.42174485  0.73512303  1
  F  F24  1  0.20692371  0.09724151  0.77668360  1
  F  F25  1  0.90276334  0.10968608  0.77672172  1
  F  F26  1  0.89031415  0.79308004  0.77669834  1
