# generated using pymatgen
data_Li2ZrF6
_symmetry_space_group_name_H-M   'P 1'
_cell_length_a   4.87508288
_cell_length_b   7.42830871
_cell_length_c   10.86695747
_cell_angle_alpha   72.82153274
_cell_angle_beta   90.00000000
_cell_angle_gamma   90.00000000
_symmetry_Int_Tables_number   1
_chemical_formula_structural   Li2ZrF6
_chemical_formula_sum   'Li8 Zr4 F24'
_cell_volume   375.97619289
_cell_formula_units_Z   4
loop_
 _symmetry_equiv_pos_site_id
 _symmetry_equiv_pos_as_xyz
  1  'x, y, z'
loop_
 _atom_site_type_symbol
 _atom_site_label
 _atom_site_symmetry_multiplicity
 _atom_site_fract_x
 _atom_site_fract_y
 _atom_site_fract_z
 _atom_site_occupancy
  Li  Li0  1  0.49914420  0.40541565  0.69489362  1
  Li  Li1  1  0.99914420  0.59458435  0.80510638  1
  Li  Li2  1  0.50085580  0.59458435  0.30510638  1
  Li  Li3  1  0.00085580  0.40541565  0.19489362  1
  Li  Li4  1  0.03528435  0.03584602  0.84077425  1
  Li  Li5  1  0.53528435  0.96415398  0.65922575  1
  Li  Li6  1  0.96471565  0.96415398  0.15922575  1
  Li  Li7  1  0.46471565  0.03584602  0.34077425  1
  Zr  Zr8  1  0.48803966  0.25474669  0.99849300  1
  Zr  Zr9  1  0.98803966  0.74525331  0.50150700  1
  Zr  Zr10  1  0.51196034  0.74525331  0.00150700  1
  Zr  Zr11  1  0.01196034  0.25474669  0.49849300  1
  F  F12  1  0.81402375  0.45507506  0.57469559  1
  F  F13  1  0.31402375  0.54492494  0.92530441  1
  F  F14  1  0.18597625  0.54492494  0.42530441  1
  F  F15  1  0.68597625  0.45507506  0.07469559  1
  F  F16  1  0.63226949  0.10147505  0.17735465  1
  F  F17  1  0.13226949  0.89852495  0.32264535  1
  F  F18  1  0.36773051  0.89852495  0.82264535  1
  F  F19  1  0.86773051  0.10147505  0.67735465  1
  F  F20  1  0.76908754  0.04458814  0.45783292  1
  F  F21  1  0.26908754  0.95541186  0.04216708  1
  F  F22  1  0.23091246  0.95541186  0.54216708  1
  F  F23  1  0.73091246  0.04458814  0.95783292  1
  F  F24  1  0.76776087  0.39962036  0.34584387  1
  F  F25  1  0.26776087  0.60037964  0.15415613  1
  F  F26  1  0.23223913  0.60037964  0.65415613  1
  F  F27  1  0.73223913  0.39962036  0.84584387  1
  F  F28  1  0.36628103  0.24685121  0.59727078  1
  F  F29  1  0.86628103  0.75314879  0.90272922  1
  F  F30  1  0.63371897  0.75314879  0.40272922  1
  F  F31  1  0.13371897  0.24685121  0.09727078  1
  F  F32  1  0.24136715  0.24917615  0.34376989  1
  F  F33  1  0.74136715  0.75082385  0.15623011  1
  F  F34  1  0.75863285  0.75082385  0.65623011  1
  F  F35  1  0.25863285  0.24917615  0.84376989  1
