# generated using pymatgen
data_Li11La12Fe3O28
_symmetry_space_group_name_H-M   'P 1'
_cell_length_a   7.53197439
_cell_length_b   13.30443880
_cell_length_c   13.30443880
_cell_angle_alpha   90.00000000
_cell_angle_beta   90.00000000
_cell_angle_gamma   90.00000000
_symmetry_Int_Tables_number   1
_chemical_formula_structural   Li11La12Fe3O28
_chemical_formula_sum   'Li22 La24 Fe6 O56'
_cell_volume   1333.22041413
_cell_formula_units_Z   2
loop_
 _symmetry_equiv_pos_site_id
 _symmetry_equiv_pos_as_xyz
  1  'x, y, z'
loop_
 _atom_site_type_symbol
 _atom_site_label
 _atom_site_symmetry_multiplicity
 _atom_site_fract_x
 _atom_site_fract_y
 _atom_site_fract_z
 _atom_site_occupancy
  Li  Li0  1  0.50000000  0.12095112  0.37904888  1
  Li  Li1  1  0.15720445  0.59785827  0.09785827  1
  Li  Li2  1  0.84279555  0.40214173  0.90214173  1
  Li  Li3  1  0.34977593  0.07670957  0.57670957  1
  Li  Li4  1  0.65022407  0.42329043  0.07670957  1
  Li  Li5  1  0.50000000  0.87904888  0.62095112  1
  Li  Li6  1  0.84279555  0.90214173  0.59785827  1
  Li  Li7  1  0.34977593  0.57670957  0.92329043  1
  Li  Li8  1  0.50000000  0.00000000  0.00000000  1
  Li  Li9  1  0.65022407  0.57670957  0.92329043  1
  Li  Li10  1  0.15720445  0.09785827  0.40214173  1
  Li  Li11  1  0.65022407  0.07670957  0.57670957  1
  Li  Li12  1  0.84279555  0.59785827  0.09785827  1
  Li  Li13  1  0.50000000  0.50000000  0.50000000  1
  Li  Li14  1  0.65022407  0.92329043  0.42329043  1
  Li  Li15  1  0.84279555  0.09785827  0.40214173  1
  Li  Li16  1  0.15720445  0.90214173  0.59785827  1
  Li  Li17  1  0.34977593  0.42329043  0.07670957  1
  Li  Li18  1  0.15720445  0.40214173  0.90214173  1
  Li  Li19  1  0.50000000  0.62095112  0.12095112  1
  Li  Li20  1  0.34977593  0.92329043  0.42329043  1
  Li  Li21  1  0.50000000  0.37904888  0.87904888  1
  La  La22  1  0.25968385  0.00915990  0.19968478  1
  La  La23  1  0.25968385  0.69968478  0.50915990  1
  La  La24  1  0.50000000  0.72179640  0.77820360  1
  La  La25  1  0.74031615  0.80031522  0.00915990  1
  La  La26  1  0.74031615  0.00915990  0.19968478  1
  La  La27  1  0.74031615  0.19968478  0.99084010  1
  La  La28  1  0.25968385  0.50915990  0.30031522  1
  La  La29  1  0.25968385  0.30031522  0.49084010  1
  La  La30  1  0.74031615  0.99084010  0.80031522  1
  La  La31  1  0.00000000  0.75934089  0.74065911  1
  La  La32  1  0.00000000  0.25934089  0.75934089  1
  La  La33  1  0.00000000  0.24065911  0.25934089  1
  La  La34  1  0.74031615  0.49084010  0.69968478  1
  La  La35  1  0.50000000  0.77820360  0.27820360  1
  La  La36  1  0.25968385  0.19968478  0.99084010  1
  La  La37  1  0.50000000  0.22179640  0.72179640  1
  La  La38  1  0.25968385  0.49084010  0.69968478  1
  La  La39  1  0.74031615  0.69968478  0.50915990  1
  La  La40  1  0.00000000  0.74065911  0.24065911  1
  La  La41  1  0.74031615  0.30031522  0.49084010  1
  La  La42  1  0.50000000  0.27820360  0.22179640  1
  La  La43  1  0.74031615  0.50915990  0.30031522  1
  La  La44  1  0.25968385  0.99084010  0.80031522  1
  La  La45  1  0.25968385  0.80031522  0.00915990  1
  Fe  Fe46  1  0.00000000  0.91417871  0.41417871  1
  Fe  Fe47  1  0.00000000  0.58582129  0.91417871  1
  Fe  Fe48  1  0.00000000  0.41417871  0.08582129  1
  Fe  Fe49  1  0.00000000  0.00000000  0.00000000  1
  Fe  Fe50  1  0.00000000  0.08582129  0.58582129  1
  Fe  Fe51  1  0.00000000  0.50000000  0.50000000  1
  O  O52  1  0.00000000  0.12061803  0.10815872  1
  O  O53  1  0.50000000  0.62075057  0.62210640  1
  O  O54  1  0.71231967  0.81654939  0.68345061  1
  O  O55  1  0.50000000  0.18108352  0.51652891  1
  O  O56  1  0.74767157  0.00000000  0.00000000  1
  O  O57  1  0.50000000  0.31891648  0.01652891  1
  O  O58  1  0.28768033  0.81654939  0.68345061  1
  O  O59  1  0.00000000  0.97058340  0.68993652  1
  O  O60  1  0.00000000  0.68993652  0.02941660  1
  O  O61  1  0.00000000  0.60815872  0.62061803  1
  O  O62  1  0.18733214  0.00000000  0.50000000  1
  O  O63  1  0.80285708  0.34110089  0.15889911  1
  O  O64  1  0.18733214  0.50000000  0.00000000  1
  O  O65  1  0.00000000  0.37938197  0.60815872  1
  O  O66  1  0.50000000  0.37789360  0.62075057  1
  O  O67  1  0.19714292  0.65889911  0.84110089  1
  O  O68  1  0.00000000  0.18993652  0.47058340  1
  O  O69  1  0.00000000  0.62061803  0.39184128  1
  O  O70  1  0.50000000  0.81891648  0.48347109  1
  O  O71  1  0.50000000  0.98347109  0.31891648  1
  O  O72  1  0.50000000  0.87924943  0.12210640  1
  O  O73  1  0.50000000  0.48347109  0.18108352  1
  O  O74  1  0.80285708  0.15889911  0.65889911  1
  O  O75  1  0.19714292  0.84110089  0.34110089  1
  O  O76  1  0.28768033  0.18345061  0.31654939  1
  O  O77  1  0.71231967  0.68345061  0.18345061  1
  O  O78  1  0.71231967  0.18345061  0.31654939  1
  O  O79  1  0.28768033  0.31654939  0.81654939  1
  O  O80  1  0.00000000  0.31006348  0.97058340  1
  O  O81  1  0.71231967  0.31654939  0.81654939  1
  O  O82  1  0.50000000  0.12075057  0.87789360  1
  O  O83  1  0.50000000  0.68108352  0.98347109  1
  O  O84  1  0.19714292  0.15889911  0.65889911  1
  O  O85  1  0.74767157  0.50000000  0.50000000  1
  O  O86  1  0.00000000  0.39184128  0.37938197  1
  O  O87  1  0.25232843  0.00000000  0.00000000  1
  O  O88  1  0.00000000  0.52941660  0.18993652  1
  O  O89  1  0.50000000  0.01652891  0.68108352  1
  O  O90  1  0.00000000  0.87938197  0.89184128  1
  O  O91  1  0.50000000  0.12210640  0.12075057  1
  O  O92  1  0.80285708  0.84110089  0.34110089  1
  O  O93  1  0.81266786  0.50000000  0.00000000  1
  O  O94  1  0.00000000  0.02941660  0.31006348  1
  O  O95  1  0.50000000  0.37924943  0.37789360  1
  O  O96  1  0.25232843  0.50000000  0.50000000  1
  O  O97  1  0.19714292  0.34110089  0.15889911  1
  O  O98  1  0.50000000  0.87789360  0.87924943  1
  O  O99  1  0.80285708  0.65889911  0.84110089  1
  O  O100  1  0.00000000  0.81006348  0.52941660  1
  O  O101  1  0.50000000  0.51652891  0.81891648  1
  O  O102  1  0.00000000  0.89184128  0.12061803  1
  O  O103  1  0.50000000  0.62210640  0.37924943  1
  O  O104  1  0.00000000  0.10815872  0.87938197  1
  O  O105  1  0.28768033  0.68345061  0.18345061  1
  O  O106  1  0.00000000  0.47058340  0.81006348  1
  O  O107  1  0.81266786  0.00000000  0.50000000  1
