# generated using pymatgen
data_BaLiZr2F11
_symmetry_space_group_name_H-M   'P 1'
_cell_length_a   8.06891644
_cell_length_b   8.06891644
_cell_length_c   8.06891644
_cell_angle_alpha   119.04932788
_cell_angle_beta   119.04932788
_cell_angle_gamma   91.65465362
_symmetry_Int_Tables_number   1
_chemical_formula_structural   BaLiZr2F11
_chemical_formula_sum   'Ba2 Li2 Zr4 F22'
_cell_volume   376.64383672
_cell_formula_units_Z   2
loop_
 _symmetry_equiv_pos_site_id
 _symmetry_equiv_pos_as_xyz
  1  'x, y, z'
loop_
 _atom_site_type_symbol
 _atom_site_label
 _atom_site_symmetry_multiplicity
 _atom_site_fract_x
 _atom_site_fract_y
 _atom_site_fract_z
 _atom_site_occupancy
  Ba  Ba0  1  0.19480802  0.19480802  -0.00000000  1
  Ba  Ba1  1  0.80519198  0.80519198  0.00000000  1
  Li  Li2  1  0.75000000  0.25000000  0.50000000  1
  Li  Li3  1  0.25000000  0.75000000  0.50000000  1
  Zr  Zr4  1  0.63751907  0.21430330  0.85182237  1
  Zr  Zr5  1  0.78569670  0.63751907  0.42321676  1
  Zr  Zr6  1  0.36248093  0.78569670  0.14817763  1
  Zr  Zr7  1  0.21430330  0.36248093  0.57678324  1
  F  F8  1  0.81079975  0.53194821  0.13296052  1
  F  F9  1  0.81135557  0.88172009  0.69307566  1
  F  F10  1  0.05455001  0.83878580  0.56374198  1
  F  F11  1  0.16121420  0.72495618  0.21576321  1
  F  F12  1  0.53194821  0.39898769  0.72114745  1
  F  F13  1  0.67783923  0.81079975  0.27885255  1
  F  F14  1  0.49080703  0.05455001  0.21576321  1
  F  F15  1  0.60101231  0.32216077  0.13296052  1
  F  F16  1  0.50919297  0.94544999  0.78423679  1
  F  F17  1  0.11827991  0.81135557  0.92963548  1
  F  F18  1  0.50000000  0.00000000  0.50000000  1
  F  F19  1  0.88172009  0.18864443  0.07036452  1
  F  F20  1  0.94544999  0.16121420  0.43625802  1
  F  F21  1  0.46805179  0.60101231  0.27885255  1
  F  F22  1  0.39898769  0.67783923  0.86703948  1
  F  F23  1  0.18920025  0.46805179  0.86703948  1
  F  F24  1  0.32216077  0.18920025  0.72114745  1
  F  F25  1  0.83878580  0.27504382  0.78423679  1
  F  F26  1  0.00000000  0.50000000  0.50000000  1
  F  F27  1  0.72495618  0.50919297  0.56374198  1
  F  F28  1  0.18864443  0.11827991  0.30692434  1
  F  F29  1  0.27504382  0.49080703  0.43625802  1
