# generated using pymatgen
data_LiMnO2
_symmetry_space_group_name_H-M   'P 1'
_cell_length_a   5.64587603
_cell_length_b   5.64586951
_cell_length_c   6.09795226
_cell_angle_alpha   117.58627115
_cell_angle_beta   117.58629234
_cell_angle_gamma   89.95562213
_symmetry_Int_Tables_number   1
_chemical_formula_structural   LiMnO2
_chemical_formula_sum   'Li4 Mn4 O8'
_cell_volume   146.93689924
_cell_formula_units_Z   4
loop_
 _symmetry_equiv_pos_site_id
 _symmetry_equiv_pos_as_xyz
  1  'x, y, z'
loop_
 _atom_site_type_symbol
 _atom_site_label
 _atom_site_symmetry_multiplicity
 _atom_site_fract_x
 _atom_site_fract_y
 _atom_site_fract_z
 _atom_site_occupancy
  Li  Li0  1  0.50000000  -0.00000000  -0.00000000  1
  Li  Li1  1  0.50000000  0.50000000  0.50000000  1
  Li  Li2  1  0.50000000  0.50000000  -0.00000000  1
  Li  Li3  1  -0.00000000  0.50000000  0.50000000  1
  Mn  Mn4  1  -0.00000000  -0.00000000  0.50000000  1
  Mn  Mn5  1  -0.00000000  0.50000000  -0.00000000  1
  Mn  Mn6  1  0.50000000  -0.00000000  0.50000000  1
  Mn  Mn7  1  -0.00000000  -0.00000000  -0.00000000  1
  O  O8  1  0.25234753  0.77086114  0.50448212  1
  O  O9  1  0.23363530  0.25213642  0.00447986  1
  O  O10  1  0.74765247  0.22913886  0.49551788  1
  O  O11  1  0.74786340  0.76636560  0.49552055  1
  O  O12  1  0.22914015  0.74765362  0.99551886  1
  O  O13  1  0.76636470  0.74786358  0.99552014  1
  O  O14  1  0.77085985  0.25234638  0.00448114  1
  O  O15  1  0.25213660  0.23363440  0.50447945  1
