# generated using pymatgen
data_K2LiAlF6
_symmetry_space_group_name_H-M   'P 1'
_cell_length_a   5.53334071
_cell_length_b   5.53334045
_cell_length_c   13.54714527
_cell_angle_alpha   90.00000000
_cell_angle_beta   90.00000000
_cell_angle_gamma   119.99999596
_symmetry_Int_Tables_number   1
_chemical_formula_structural   K2LiAlF6
_chemical_formula_sum   'K6 Li3 Al3 F18'
_cell_volume   359.21398938
_cell_formula_units_Z   3
loop_
 _symmetry_equiv_pos_site_id
 _symmetry_equiv_pos_as_xyz
  1  'x, y, z'
loop_
 _atom_site_type_symbol
 _atom_site_label
 _atom_site_symmetry_multiplicity
 _atom_site_fract_x
 _atom_site_fract_y
 _atom_site_fract_z
 _atom_site_occupancy
  K  K0  1  -0.00000000  -0.00000000  0.74494422  1
  K  K1  1  0.33333300  0.66666700  0.08125126  1
  K  K2  1  -0.00000000  -0.00000000  0.43853117  1
  K  K3  1  0.33333300  0.66666700  0.58548001  1
  K  K4  1  0.66666700  0.33333300  0.92169055  1
  K  K5  1  0.66666700  0.33333300  0.22815239  1
  Li  Li6  1  -0.00000000  -0.00000000  0.19107305  1
  Li  Li7  1  0.66666700  0.33333300  0.47559689  1
  Li  Li8  1  0.33333300  0.66666700  0.83326005  1
  Al  Al9  1  0.66666700  0.33333300  0.67202590  1
  Al  Al10  1  -0.00000000  -0.00000000  0.99464806  1
  Al  Al11  1  0.33333300  0.66666700  0.33332762  1
  F  F12  1  0.64347900  0.82174100  0.25684723  1
  F  F13  1  0.81634872  0.18365128  0.59030707  1
  F  F14  1  0.85030640  0.14969360  0.07635839  1
  F  F15  1  0.02317400  0.51158750  0.40981349  1
  F  F16  1  0.51112665  0.02225431  0.74719016  1
  F  F17  1  0.48841250  0.97682600  0.40981349  1
  F  F18  1  0.15555935  0.84444065  0.91949228  1
  F  F19  1  0.51112665  0.48887335  0.74719016  1
  F  F20  1  0.17825900  0.35652100  0.25684723  1
  F  F21  1  0.81634872  0.63269745  0.59030707  1
  F  F22  1  0.85030640  0.70061381  0.07635839  1
  F  F23  1  0.36730255  0.18365128  0.59030707  1
  F  F24  1  0.29938619  0.14969360  0.07635839  1
  F  F25  1  0.17825900  0.82174100  0.25684723  1
  F  F26  1  0.68888231  0.84444065  0.91949228  1
  F  F27  1  0.97774569  0.48887335  0.74719016  1
  F  F28  1  0.15555935  0.31111769  0.91949228  1
  F  F29  1  0.48841250  0.51158750  0.40981349  1
