# generated using pymatgen
data_Rb4LiZr3H2F19
_symmetry_space_group_name_H-M   'P 1'
_cell_length_a   13.38377300
_cell_length_b   11.60817800
_cell_length_c   12.81725744
_cell_angle_alpha   69.38077233
_cell_angle_beta   90.00000000
_cell_angle_gamma   90.00000000
_symmetry_Int_Tables_number   1
_chemical_formula_structural   Rb4LiZr3H2F19
_chemical_formula_sum   'Rb16 Li4 Zr12 H8 F76'
_cell_volume   1863.74456964
_cell_formula_units_Z   4
loop_
 _symmetry_equiv_pos_site_id
 _symmetry_equiv_pos_as_xyz
  1  'x, y, z'
loop_
 _atom_site_type_symbol
 _atom_site_label
 _atom_site_symmetry_multiplicity
 _atom_site_fract_x
 _atom_site_fract_y
 _atom_site_fract_z
 _atom_site_occupancy
  Rb  Rb0  1  0.61398000  0.65051900  0.07766000  1
  Rb  Rb1  1  0.12026900  0.46309900  0.41590400  1
  Rb  Rb2  1  0.62026900  0.03690100  0.08409600  1
  Rb  Rb3  1  0.13309400  0.65586600  0.07222900  1
  Rb  Rb4  1  0.38602000  0.34948100  0.92234000  1
  Rb  Rb5  1  0.86690600  0.34413400  0.92777100  1
  Rb  Rb6  1  0.87014000  0.96741900  0.92701000  1
  Rb  Rb7  1  0.87973100  0.53690100  0.58409600  1
  Rb  Rb8  1  0.11398000  0.84948100  0.42234000  1
  Rb  Rb9  1  0.88602000  0.15051900  0.57766000  1
  Rb  Rb10  1  0.37014000  0.53258100  0.57299000  1
  Rb  Rb11  1  0.12986000  0.03258100  0.07299000  1
  Rb  Rb12  1  0.62986000  0.46741900  0.42701000  1
  Rb  Rb13  1  0.63309400  0.84413400  0.42777100  1
  Rb  Rb14  1  0.36690600  0.15586600  0.57222900  1
  Rb  Rb15  1  0.37973100  0.96309900  0.91590400  1
  Li  Li16  1  0.87832900  0.75099000  0.75408200  1
  Li  Li17  1  0.12167100  0.24901000  0.24591800  1
  Li  Li18  1  0.62167100  0.25099000  0.25408200  1
  Li  Li19  1  0.37832900  0.74901000  0.74591800  1
  Zr  Zr20  1  0.12650300  0.58527100  0.76065100  1
  Zr  Zr21  1  0.62580000  0.22702100  0.74950200  1
  Zr  Zr22  1  0.62632800  0.58857200  0.76293900  1
  Zr  Zr23  1  0.37420000  0.77297900  0.25049800  1
  Zr  Zr24  1  0.37349700  0.08527100  0.26065100  1
  Zr  Zr25  1  0.87420000  0.72702100  0.24950200  1
  Zr  Zr26  1  0.87349700  0.41472900  0.23934900  1
  Zr  Zr27  1  0.12580000  0.27297900  0.75049800  1
  Zr  Zr28  1  0.62650300  0.91472900  0.73934900  1
  Zr  Zr29  1  0.87367200  0.08857200  0.26293900  1
  Zr  Zr30  1  0.12632800  0.91142800  0.73706100  1
  Zr  Zr31  1  0.37367200  0.41142800  0.23706100  1
  H  H32  1  0.37597600  0.62756300  0.98205700  1
  H  H33  1  0.87597600  0.87243700  0.51794300  1
  H  H34  1  0.62402400  0.37243700  0.01794300  1
  H  H35  1  0.12039400  0.37074000  0.00985100  1
  H  H36  1  0.37960600  0.87074000  0.50985100  1
  H  H37  1  0.87960600  0.62926000  0.99014900  1
  H  H38  1  0.12402400  0.12756300  0.48205700  1
  H  H39  1  0.62039400  0.12926000  0.49014900  1
  F  F40  1  0.72717000  0.18375700  0.87865500  1
  F  F41  1  0.52571900  0.41426600  0.23609000  1
  F  F42  1  0.87374400  0.78808500  0.57852400  1
  F  F43  1  0.96300600  0.58740200  0.21765500  1
  F  F44  1  0.36736200  0.98786200  0.43468100  1
  F  F45  1  0.77283000  0.68375700  0.37865500  1
  F  F46  1  0.22717000  0.31624300  0.62134500  1
  F  F47  1  0.46300600  0.91259800  0.28234500  1
  F  F48  1  0.72212500  0.08376300  0.27564900  1
  F  F49  1  0.02571900  0.08573400  0.26391000  1
  F  F50  1  0.71654100  0.08412600  0.72473900  1
  F  F51  1  0.97957500  0.62875700  0.76438800  1
  F  F52  1  0.87921700  0.41888300  0.39719600  1
  F  F53  1  0.11101800  0.28493200  0.06539800  1
  F  F54  1  0.61101800  0.21506800  0.43460200  1
  F  F55  1  0.12920000  0.72280200  0.84628400  1
  F  F56  1  0.21654100  0.41587400  0.77526100  1
  F  F57  1  0.27295800  0.63438100  0.75081600  1
  F  F58  1  0.47957500  0.87124300  0.73561200  1
  F  F59  1  0.86777700  0.08573000  0.10508900  1
  F  F60  1  0.38016400  0.51272500  0.06035300  1
  F  F61  1  0.62078300  0.91888300  0.89719600  1
  F  F62  1  0.37269700  0.60395900  0.21289300  1
  F  F63  1  0.13222300  0.91427000  0.89491100  1
  F  F64  1  0.72704200  0.36561900  0.24918400  1
  F  F65  1  0.28345900  0.91587400  0.27526100  1
  F  F66  1  0.37374400  0.71191500  0.92147600  1
  F  F67  1  0.62256700  0.71751900  0.85046600  1
  F  F68  1  0.37080000  0.22280200  0.34628400  1
  F  F69  1  0.02162400  0.17135000  0.86375800  1
  F  F70  1  0.47428100  0.58573400  0.76391000  1
  F  F71  1  0.87743300  0.21751900  0.35046600  1
  F  F72  1  0.88016400  0.98727500  0.43964700  1
  F  F73  1  0.97837600  0.82865000  0.13624200  1
  F  F74  1  0.73057200  0.32509700  0.63538400  1
  F  F75  1  0.22704200  0.13438100  0.25081600  1
  F  F76  1  0.12078300  0.58111700  0.60280400  1
  F  F77  1  0.02119700  0.31577200  0.62450900  1
  F  F78  1  0.02042500  0.37124300  0.23561200  1
  F  F79  1  0.97880300  0.68422800  0.37549100  1
  F  F80  1  0.22212500  0.41623700  0.22435100  1
  F  F81  1  0.97428100  0.91426600  0.73609000  1
  F  F82  1  0.23057200  0.17490300  0.86461600  1
  F  F83  1  0.53699400  0.08740200  0.71765500  1
  F  F84  1  0.38898200  0.78493200  0.56539800  1
  F  F85  1  0.12730300  0.10395900  0.71289300  1
  F  F86  1  0.62920000  0.77719800  0.65371600  1
  F  F87  1  0.52042500  0.12875700  0.26438800  1
  F  F88  1  0.47880300  0.81577200  0.12450900  1
  F  F89  1  0.12625600  0.21191500  0.42147600  1
  F  F90  1  0.77787500  0.58376300  0.77564900  1
  F  F91  1  0.78345900  0.58412600  0.22473900  1
  F  F92  1  0.87269700  0.89604100  0.28710700  1
  F  F93  1  0.52119700  0.18422800  0.87549100  1
  F  F94  1  0.63263800  0.01213800  0.56531900  1
  F  F95  1  0.62625600  0.28808500  0.07852400  1
  F  F96  1  0.61983600  0.48727500  0.93964700  1
  F  F97  1  0.37921700  0.08111700  0.10280400  1
  F  F98  1  0.26942800  0.67490300  0.36461600  1
  F  F99  1  0.03699400  0.41259800  0.78234500  1
  F  F100  1  0.37743300  0.28248100  0.14953400  1
  F  F101  1  0.36777700  0.41427000  0.39491100  1
  F  F102  1  0.62730300  0.39604100  0.78710700  1
  F  F103  1  0.86736200  0.51213800  0.06531900  1
  F  F104  1  0.13263800  0.48786200  0.93468100  1
  F  F105  1  0.87080000  0.27719800  0.15371600  1
  F  F106  1  0.76942800  0.82509700  0.13538400  1
  F  F107  1  0.88898200  0.71506800  0.93460200  1
  F  F108  1  0.12256700  0.78248100  0.64953400  1
  F  F109  1  0.52162400  0.32865000  0.63624200  1
  F  F110  1  0.27787500  0.91623700  0.72435100  1
  F  F111  1  0.11983600  0.01272500  0.56035300  1
  F  F112  1  0.47837600  0.67135000  0.36375800  1
  F  F113  1  0.63222300  0.58573000  0.60508900  1
  F  F114  1  0.77295800  0.86561900  0.74918400  1
  F  F115  1  0.27283000  0.81624300  0.12134500  1
