# generated using pymatgen
data_KLi(PO3)2
_symmetry_space_group_name_H-M   'P 1'
_cell_length_a   9.66029769
_cell_length_b   9.66029771
_cell_length_c   11.78709054
_cell_angle_alpha   90.28707418
_cell_angle_beta   90.28707508
_cell_angle_gamma   90.43536273
_symmetry_Int_Tables_number   1
_chemical_formula_structural   KLi(PO3)2
_chemical_formula_sum   'K8 Li8 P16 O48'
_cell_volume   1099.92764082
_cell_formula_units_Z   8
loop_
 _symmetry_equiv_pos_site_id
 _symmetry_equiv_pos_as_xyz
  1  'x, y, z'
loop_
 _atom_site_type_symbol
 _atom_site_label
 _atom_site_symmetry_multiplicity
 _atom_site_fract_x
 _atom_site_fract_y
 _atom_site_fract_z
 _atom_site_occupancy
  K  K0  1  0.46894746  0.22213354  0.95739630  1
  K  K1  1  0.77786646  0.53105254  0.54260370  1
  K  K2  1  0.25211370  0.00196783  0.47023019  1
  K  K3  1  0.53105254  0.77786646  0.04260370  1
  K  K4  1  0.22213354  0.46894746  0.45739630  1
  K  K5  1  0.74788630  0.99803217  0.52976981  1
  K  K6  1  0.99803217  0.74788630  0.02976981  1
  K  K7  1  0.00196783  0.25211370  0.97023019  1
  Li  Li8  1  0.22734738  0.38736161  0.12663102  1
  Li  Li9  1  0.11790243  0.74331704  0.56460589  1
  Li  Li10  1  0.25668296  0.88209757  0.93539411  1
  Li  Li11  1  0.77265262  0.61263839  0.87336898  1
  Li  Li12  1  0.61263839  0.77265262  0.37336898  1
  Li  Li13  1  0.38736161  0.22734738  0.62663102  1
  Li  Li14  1  0.74331704  0.11790243  0.06460589  1
  Li  Li15  1  0.88209757  0.25668296  0.43539411  1
  P  P16  1  0.47747746  0.52252254  0.25000000  1
  P  P17  1  0.03754642  0.96245358  0.75000000  1
  P  P18  1  0.70956274  0.44865049  0.09872146  1
  P  P19  1  0.05128757  0.53311623  0.75071820  1
  P  P20  1  0.55134951  0.29043726  0.40127854  1
  P  P21  1  0.44865049  0.70956274  0.59872146  1
  P  P22  1  0.94871243  0.46688377  0.24928180  1
  P  P23  1  0.53311623  0.05128757  0.25071820  1
  P  P24  1  0.94624724  0.75358545  0.33558378  1
  P  P25  1  0.24641455  0.05375276  0.16441622  1
  P  P26  1  0.52252254  0.47747746  0.75000000  1
  P  P27  1  0.46688377  0.94871243  0.74928180  1
  P  P28  1  0.75358545  0.94624724  0.83558378  1
  P  P29  1  0.96245358  0.03754642  0.25000000  1
  P  P30  1  0.05375276  0.24641455  0.66441622  1
  P  P31  1  0.29043726  0.55134951  0.90127854  1
  O  O32  1  0.87271457  0.94406366  0.74117633  1
  O  O33  1  0.54647136  0.44766317  0.35784110  1
  O  O34  1  0.12728543  0.05593634  0.25882367  1
  O  O35  1  0.21168527  0.55137310  0.78131864  1
  O  O36  1  0.96431192  0.41918018  0.36837588  1
  O  O37  1  0.51911822  0.66983946  0.25828997  1
  O  O38  1  0.78831473  0.44862690  0.21868136  1
  O  O39  1  0.41050920  0.03437445  0.65675452  1
  O  O40  1  0.08715067  0.90874703  0.85979464  1
  O  O41  1  0.66983946  0.51911822  0.75828997  1
  O  O42  1  0.58949080  0.96562555  0.34324548  1
  O  O43  1  0.94406366  0.87271457  0.24117633  1
  O  O44  1  0.45352864  0.55233683  0.64215890  1
  O  O45  1  0.06908157  0.76922445  0.40998887  1
  O  O46  1  0.42276283  0.25652561  0.46412923  1
  O  O47  1  0.58081982  0.03568908  0.13162412  1
  O  O48  1  0.41918018  0.96431192  0.86837588  1
  O  O49  1  0.25652561  0.42276283  0.96412923  1
  O  O50  1  0.80803573  0.73927457  0.38829411  1
  O  O51  1  0.26072543  0.19196427  0.11170589  1
  O  O52  1  0.90874703  0.08715067  0.35979464  1
  O  O53  1  0.03568908  0.58081982  0.63162412  1
  O  O54  1  0.23077555  0.93091843  0.09001113  1
  O  O55  1  0.97078665  0.63116783  0.24520992  1
  O  O56  1  0.44766317  0.54647136  0.85784110  1
  O  O57  1  0.31370717  0.72521136  0.54041683  1
  O  O58  1  0.02921335  0.36883217  0.75479008  1
  O  O59  1  0.57723717  0.74347439  0.53587077  1
  O  O60  1  0.09125297  0.91284933  0.64020536  1
  O  O61  1  0.96562555  0.58949080  0.84324548  1
  O  O62  1  0.72521136  0.31370717  0.04041683  1
  O  O63  1  0.19196427  0.26072543  0.61170589  1
  O  O64  1  0.91284933  0.09125297  0.14020536  1
  O  O65  1  0.03437445  0.41050920  0.15675452  1
  O  O66  1  0.27478864  0.68629283  0.95958317  1
  O  O67  1  0.33016054  0.48088178  0.24171003  1
  O  O68  1  0.36883217  0.02921335  0.25479008  1
  O  O69  1  0.76922445  0.06908157  0.90998887  1
  O  O70  1  0.44862690  0.78831473  0.71868136  1
  O  O71  1  0.73927457  0.80803573  0.88829411  1
  O  O72  1  0.55233683  0.45352864  0.14215890  1
  O  O73  1  0.93091843  0.23077555  0.59001113  1
  O  O74  1  0.74347439  0.57723717  0.03587077  1
  O  O75  1  0.63116783  0.97078665  0.74520992  1
  O  O76  1  0.05593634  0.12728543  0.75882367  1
  O  O77  1  0.68629283  0.27478864  0.45958317  1
  O  O78  1  0.48088178  0.33016054  0.74171003  1
  O  O79  1  0.55137310  0.21168527  0.28131864  1
