# generated using pymatgen
data_KLi(PO3)2
_symmetry_space_group_name_H-M   'P 1'
_cell_length_a   5.48581070
_cell_length_b   13.62915082
_cell_length_c   15.33051991
_cell_angle_alpha   108.38114758
_cell_angle_beta   90.00000000
_cell_angle_gamma   90.00000000
_symmetry_Int_Tables_number   1
_chemical_formula_structural   KLi(PO3)2
_chemical_formula_sum   'K8 Li8 P16 O48'
_cell_volume   1087.73593274
_cell_formula_units_Z   8
loop_
 _symmetry_equiv_pos_site_id
 _symmetry_equiv_pos_as_xyz
  1  'x, y, z'
loop_
 _atom_site_type_symbol
 _atom_site_label
 _atom_site_symmetry_multiplicity
 _atom_site_fract_x
 _atom_site_fract_y
 _atom_site_fract_z
 _atom_site_occupancy
  K  K0  1  0.67379184  0.37643977  0.63056019  1
  K  K1  1  0.82620816  0.37643977  0.13056019  1
  K  K2  1  0.33908657  0.87474781  0.63960008  1
  K  K3  1  0.32620816  0.62356023  0.36943981  1
  K  K4  1  0.83908657  0.12525219  0.86039992  1
  K  K5  1  0.66091343  0.12525219  0.36039992  1
  K  K6  1  0.17379184  0.62356023  0.86943981  1
  K  K7  1  0.16091343  0.87474781  0.13960008  1
  Li  Li8  1  0.30474088  0.92921400  0.88943437  1
  Li  Li9  1  0.31780219  0.57310859  0.13984060  1
  Li  Li10  1  0.81780219  0.42689141  0.36015940  1
  Li  Li11  1  0.18219781  0.57310859  0.63984060  1
  Li  Li12  1  0.19525912  0.92921400  0.38943437  1
  Li  Li13  1  0.68219781  0.42689141  0.86015940  1
  Li  Li14  1  0.80474088  0.07078600  0.61056563  1
  Li  Li15  1  0.69525912  0.07078600  0.11056563  1
  P  P16  1  0.14998280  0.35970942  0.48525748  1
  P  P17  1  0.31875556  0.35571478  0.30647050  1
  P  P18  1  0.81875556  0.64428522  0.19353050  1
  P  P19  1  0.66877713  0.83987945  0.97980582  1
  P  P20  1  0.68915122  0.85645565  0.30633555  1
  P  P21  1  0.18915122  0.14354435  0.19366445  1
  P  P22  1  0.83122287  0.83987945  0.47980582  1
  P  P23  1  0.33122287  0.16012055  0.02019418  1
  P  P24  1  0.16877713  0.16012055  0.52019418  1
  P  P25  1  0.18124444  0.35571478  0.80646950  1
  P  P26  1  0.68124444  0.64428522  0.69353050  1
  P  P27  1  0.64998280  0.64029058  0.01474252  1
  P  P28  1  0.31084878  0.14354435  0.69366445  1
  P  P29  1  0.81084878  0.85645565  0.80633555  1
  P  P30  1  0.85001720  0.64029058  0.51474252  1
  P  P31  1  0.35001720  0.35970942  0.98525748  1
  O  O32  1  0.21822759  0.06343687  0.96186723  1
  O  O33  1  0.56239069  0.37576192  0.27515141  1
  O  O34  1  0.75580181  0.75316859  0.02292870  1
  O  O35  1  0.33804733  0.38735894  0.41681429  1
  O  O36  1  0.22166110  0.23349453  0.78309809  1
  O  O37  1  0.93533744  0.11517099  0.20787498  1
  O  O38  1  0.90212040  0.16675190  0.53876728  1
  O  O39  1  0.60019793  0.59502121  0.21770111  1
  O  O40  1  0.59787960  0.16675190  0.03876728  1
  O  O41  1  0.06239069  0.62423808  0.22484859  1
  O  O42  1  0.88313514  0.93653538  0.32795742  1
  O  O43  1  0.60124744  0.35045727  0.94743946  1
  O  O44  1  0.66195267  0.61264106  0.58318471  1
  O  O45  1  0.39980207  0.40497879  0.78229889  1
  O  O46  1  0.06466256  0.88482901  0.79212502  1
  O  O47  1  0.25580181  0.24683141  0.47707130  1
  O  O48  1  0.20020166  0.42882519  0.57923671  1
  O  O49  1  0.79979834  0.57117481  0.42076329  1
  O  O50  1  0.24419819  0.24683141  0.97707130  1
  O  O51  1  0.43760931  0.62423808  0.72484859  1
  O  O52  1  0.89980207  0.59502121  0.71770111  1
  O  O53  1  0.11686486  0.06346462  0.67204258  1
  O  O54  1  0.61686486  0.93653538  0.82795742  1
  O  O55  1  0.68683234  0.79840698  0.38295108  1
  O  O56  1  0.16195267  0.38735894  0.91681529  1
  O  O57  1  0.89875256  0.35045727  0.44743946  1
  O  O58  1  0.31316766  0.20159302  0.61704892  1
  O  O59  1  0.18683234  0.20159302  0.11704892  1
  O  O60  1  0.43533744  0.88482901  0.29212502  1
  O  O61  1  0.72166110  0.76650547  0.71690191  1
  O  O62  1  0.71822759  0.93656313  0.53813277  1
  O  O63  1  0.28177241  0.06343687  0.46186723  1
  O  O64  1  0.39875256  0.64954273  0.05256054  1
  O  O65  1  0.38313514  0.06346462  0.17204258  1
  O  O66  1  0.83804733  0.61264106  0.08318571  1
  O  O67  1  0.10019793  0.40497879  0.28229889  1
  O  O68  1  0.29979834  0.42882519  0.07923671  1
  O  O69  1  0.93760931  0.37576192  0.77515141  1
  O  O70  1  0.40212040  0.83324810  0.96123272  1
  O  O71  1  0.74419819  0.75316859  0.52292870  1
  O  O72  1  0.10124744  0.64954273  0.55256054  1
  O  O73  1  0.27833890  0.23349453  0.28309809  1
  O  O74  1  0.09787960  0.83324810  0.46123272  1
  O  O75  1  0.81316766  0.79840698  0.88295108  1
  O  O76  1  0.70020166  0.57117481  0.92076329  1
  O  O77  1  0.56466256  0.11517099  0.70787498  1
  O  O78  1  0.78177241  0.93656313  0.03813277  1
  O  O79  1  0.77833890  0.76650547  0.21690191  1
