# generated using pymatgen
data_Ba7Na5Li3N3
_symmetry_space_group_name_H-M   'P 1'
_cell_length_a   12.48334373
_cell_length_b   12.48334373
_cell_length_c   12.48334373
_cell_angle_alpha   60.00000000
_cell_angle_beta   60.00000000
_cell_angle_gamma   60.00000000
_symmetry_Int_Tables_number   1
_chemical_formula_structural   Ba7Na5Li3N3
_chemical_formula_sum   'Ba14 Na10 Li6 N6'
_cell_volume   1375.55445799
_cell_formula_units_Z   2
loop_
 _symmetry_equiv_pos_site_id
 _symmetry_equiv_pos_as_xyz
  1  'x, y, z'
loop_
 _atom_site_type_symbol
 _atom_site_label
 _atom_site_symmetry_multiplicity
 _atom_site_fract_x
 _atom_site_fract_y
 _atom_site_fract_z
 _atom_site_occupancy
  Ba  Ba0  1  0.89527100  0.89527100  0.31418800  1
  Ba  Ba1  1  0.29108100  0.70891900  0.29108100  1
  Ba  Ba2  1  0.70891900  0.29108100  0.29108100  1
  Ba  Ba3  1  0.68822700  0.10392400  0.10392400  1
  Ba  Ba4  1  0.70891900  0.70891900  0.29108100  1
  Ba  Ba5  1  0.29108100  0.29108100  0.70891900  1
  Ba  Ba6  1  0.29108100  0.70891900  0.70891900  1
  Ba  Ba7  1  0.10392400  0.10392400  0.10392400  1
  Ba  Ba8  1  0.31418800  0.89527100  0.89527100  1
  Ba  Ba9  1  0.89527100  0.89527100  0.89527100  1
  Ba  Ba10  1  0.70891900  0.29108100  0.70891900  1
  Ba  Ba11  1  0.89527100  0.31418800  0.89527100  1
  Ba  Ba12  1  0.10392400  0.10392400  0.68822700  1
  Ba  Ba13  1  0.10392400  0.68822700  0.10392400  1
  Na  Na14  1  0.50836300  0.50836300  0.99163700  1
  Na  Na15  1  0.50836300  0.99163700  0.50836300  1
  Na  Na16  1  0.99163700  0.50836300  0.99163700  1
  Na  Na17  1  0.99163700  0.99163700  0.50836300  1
  Na  Na18  1  0.32924600  0.01226100  0.32924600  1
  Na  Na19  1  0.50836300  0.99163700  0.99163700  1
  Na  Na20  1  0.32924600  0.32924600  0.01226100  1
  Na  Na21  1  0.32924600  0.32924600  0.32924600  1
  Na  Na22  1  0.01226100  0.32924600  0.32924600  1
  Na  Na23  1  0.99163700  0.50836300  0.50836300  1
  Li  Li24  1  0.67876000  0.96372000  0.67876000  1
  Li  Li25  1  0.67876000  0.67876000  0.67876000  1
  Li  Li26  1  0.96372000  0.67876000  0.67876000  1
  Li  Li27  1  0.00000000  0.00000000  0.00000000  1
  Li  Li28  1  0.67876000  0.67876000  0.96372000  1
  Li  Li29  1  0.50000000  0.50000000  0.50000000  1
  N  N30  1  0.14868900  0.85131100  0.85131100  1
  N  N31  1  0.85131100  0.14868900  0.14868900  1
  N  N32  1  0.85131100  0.85131100  0.14868900  1
  N  N33  1  0.85131100  0.14868900  0.85131100  1
  N  N34  1  0.14868900  0.14868900  0.85131100  1
  N  N35  1  0.14868900  0.85131100  0.14868900  1
