# generated using pymatgen
data_Li3Ga7
_symmetry_space_group_name_H-M   'P 1'
_cell_length_a   7.47993930
_cell_length_b   7.47993834
_cell_length_c   7.47993933
_cell_angle_alpha   68.54143867
_cell_angle_beta   68.54144435
_cell_angle_gamma   68.54144248
_symmetry_Int_Tables_number   1
_chemical_formula_structural   Li3Ga7
_chemical_formula_sum   'Li6 Ga14'
_cell_volume   349.24642563
_cell_formula_units_Z   2
loop_
 _symmetry_equiv_pos_site_id
 _symmetry_equiv_pos_as_xyz
  1  'x, y, z'
loop_
 _atom_site_type_symbol
 _atom_site_label
 _atom_site_symmetry_multiplicity
 _atom_site_fract_x
 _atom_site_fract_y
 _atom_site_fract_z
 _atom_site_occupancy
  Li  Li0  1  0.47660688  0.88094359  0.88094359  1
  Li  Li1  1  0.88094359  0.47660688  0.88094359  1
  Li  Li2  1  0.11905641  0.52339312  0.11905641  1
  Li  Li3  1  0.88094359  0.88094359  0.47660688  1
  Li  Li4  1  0.11905641  0.11905641  0.52339312  1
  Li  Li5  1  0.52339312  0.11905641  0.11905641  1
  Ga  Ga6  1  0.17375822  0.49066859  0.49066859  1
  Ga  Ga7  1  0.18315861  0.70427103  0.70427103  1
  Ga  Ga8  1  0.29572897  0.29572897  0.81684139  1
  Ga  Ga9  1  0.82624178  0.50933141  0.50933141  1
  Ga  Ga10  1  0.70427103  0.70427103  0.18315861  1
  Ga  Ga11  1  0.50933141  0.82624178  0.50933141  1
  Ga  Ga12  1  0.81684139  0.29572897  0.29572897  1
  Ga  Ga13  1  0.07750679  0.07750679  0.07750679  1
  Ga  Ga14  1  0.50933141  0.50933141  0.82624178  1
  Ga  Ga15  1  0.29572897  0.81684139  0.29572897  1
  Ga  Ga16  1  0.49066859  0.17375822  0.49066859  1
  Ga  Ga17  1  0.70427103  0.18315861  0.70427103  1
  Ga  Ga18  1  0.49066859  0.49066859  0.17375822  1
  Ga  Ga19  1  0.92249321  0.92249321  0.92249321  1
