# generated using pymatgen
data_CsLi2Cl3
_symmetry_space_group_name_H-M   'P 1'
_cell_length_a   7.05149328
_cell_length_b   7.05149328
_cell_length_c   7.05149328
_cell_angle_alpha   142.37008420
_cell_angle_beta   136.77303606
_cell_angle_gamma   58.62632857
_symmetry_Int_Tables_number   1
_chemical_formula_structural   CsLi2Cl3
_chemical_formula_sum   'Cs1 Li2 Cl3'
_cell_volume   145.27739378
_cell_formula_units_Z   1
loop_
 _symmetry_equiv_pos_site_id
 _symmetry_equiv_pos_as_xyz
  1  'x, y, z'
loop_
 _atom_site_type_symbol
 _atom_site_label
 _atom_site_symmetry_multiplicity
 _atom_site_fract_x
 _atom_site_fract_y
 _atom_site_fract_z
 _atom_site_occupancy
  Cs  Cs0  1  0.50000000  0.50000000  -0.00000000  1
  Li  Li1  1  0.80774300  0.80774300  -0.00000000  1
  Li  Li2  1  0.19225700  0.19225700  0.00000000  1
  Cl  Cl3  1  0.26994492  0.76994492  0.50000000  1
  Cl  Cl4  1  0.73005508  0.23005508  0.50000000  1
  Cl  Cl5  1  -0.00000000  -0.00000000  -0.00000000  1
