# generated using pymatgen
data_Li22Pb5
_symmetry_space_group_name_H-M   'P 1'
_cell_length_a   14.16693669
_cell_length_b   14.16693669
_cell_length_c   14.16693669
_cell_angle_alpha   60.00000000
_cell_angle_beta   60.00000000
_cell_angle_gamma   60.00000000
_symmetry_Int_Tables_number   1
_chemical_formula_structural   Li22Pb5
_chemical_formula_sum   'Li88 Pb20'
_cell_volume   2010.54066357
_cell_formula_units_Z   4
loop_
 _symmetry_equiv_pos_site_id
 _symmetry_equiv_pos_as_xyz
  1  'x, y, z'
loop_
 _atom_site_type_symbol
 _atom_site_label
 _atom_site_symmetry_multiplicity
 _atom_site_fract_x
 _atom_site_fract_y
 _atom_site_fract_z
 _atom_site_occupancy
  Li  Li0  1  0.32660700  0.32660700  0.02017800  1
  Li  Li1  1  0.00810900  0.66801000  0.31577200  1
  Li  Li2  1  0.82799500  0.17200500  0.82799500  1
  Li  Li3  1  0.75386100  0.41791100  0.07436600  1
  Li  Li4  1  0.16670700  0.16670700  0.49987900  1
  Li  Li5  1  0.17200500  0.82799500  0.17200500  1
  Li  Li6  1  0.41791100  0.07436600  0.75386100  1
  Li  Li7  1  0.75386100  0.75386100  0.07436600  1
  Li  Li8  1  0.73789300  0.42070200  0.42070200  1
  Li  Li9  1  0.75386100  0.07436600  0.41791100  1
  Li  Li10  1  0.56307000  0.25622200  0.25622200  1
  Li  Li11  1  0.58155300  0.25534000  0.58155300  1
  Li  Li12  1  0.58155300  0.58155300  0.58155300  1
  Li  Li13  1  0.41791100  0.75386100  0.75386100  1
  Li  Li14  1  0.82606600  0.82606600  0.82606600  1
  Li  Li15  1  0.66801000  0.00810900  0.00810900  1
  Li  Li16  1  0.00810900  0.31577200  0.66801000  1
  Li  Li17  1  0.57947900  0.92052100  0.92052100  1
  Li  Li18  1  0.82799500  0.17200500  0.17200500  1
  Li  Li19  1  0.56307000  0.25622200  0.92448700  1
  Li  Li20  1  0.81672400  0.50608300  0.50608300  1
  Li  Li21  1  0.00810900  0.00810900  0.31577200  1
  Li  Li22  1  0.66801000  0.00810900  0.31577200  1
  Li  Li23  1  0.82606600  0.82606600  0.52180300  1
  Li  Li24  1  0.17200500  0.17200500  0.82799500  1
  Li  Li25  1  0.31577200  0.66801000  0.00810900  1
  Li  Li26  1  0.00810900  0.66801000  0.00810900  1
  Li  Li27  1  0.25622200  0.92448700  0.25622200  1
  Li  Li28  1  0.25622200  0.25622200  0.92448700  1
  Li  Li29  1  0.92052100  0.57947900  0.92052100  1
  Li  Li30  1  0.07436600  0.41791100  0.75386100  1
  Li  Li31  1  0.50608300  0.17111100  0.81672400  1
  Li  Li32  1  0.25622200  0.56307000  0.25622200  1
  Li  Li33  1  0.92052100  0.92052100  0.57947900  1
  Li  Li34  1  0.77762500  0.07412500  0.07412500  1
  Li  Li35  1  0.07436600  0.75386100  0.75386100  1
  Li  Li36  1  0.07412500  0.07412500  0.07412500  1
  Li  Li37  1  0.42070200  0.42070200  0.42070200  1
  Li  Li38  1  0.16670700  0.16670700  0.16670700  1
  Li  Li39  1  0.25622200  0.92448700  0.56307000  1
  Li  Li40  1  0.25000000  0.25000000  0.25000000  1
  Li  Li41  1  0.66801000  0.31577200  0.00810900  1
  Li  Li42  1  0.17111100  0.50608300  0.81672400  1
  Li  Li43  1  0.32660700  0.32660700  0.32660700  1
  Li  Li44  1  0.81672400  0.50608300  0.17111100  1
  Li  Li45  1  0.25622200  0.25622200  0.56307000  1
  Li  Li46  1  0.42070200  0.42070200  0.73789300  1
  Li  Li47  1  0.50608300  0.50608300  0.81672400  1
  Li  Li48  1  0.81672400  0.17111100  0.50608300  1
  Li  Li49  1  0.02017800  0.32660700  0.32660700  1
  Li  Li50  1  0.56307000  0.92448700  0.25622200  1
  Li  Li51  1  0.52180300  0.82606600  0.82606600  1
  Li  Li52  1  0.57947900  0.57947900  0.92052100  1
  Li  Li53  1  0.16670700  0.49987900  0.16670700  1
  Li  Li54  1  0.49987900  0.16670700  0.16670700  1
  Li  Li55  1  0.25622200  0.56307000  0.92448700  1
  Li  Li56  1  0.17200500  0.82799500  0.82799500  1
  Li  Li57  1  0.50608300  0.17111100  0.50608300  1
  Li  Li58  1  0.57947900  0.92052100  0.57947900  1
  Li  Li59  1  0.82606600  0.52180300  0.82606600  1
  Li  Li60  1  0.82799500  0.82799500  0.17200500  1
  Li  Li61  1  0.92448700  0.25622200  0.56307000  1
  Li  Li62  1  0.07412500  0.07412500  0.77762500  1
  Li  Li63  1  0.07436600  0.75386100  0.41791100  1
  Li  Li64  1  0.50000000  0.50000000  0.50000000  1
  Li  Li65  1  0.00000000  0.00000000  0.00000000  1
  Li  Li66  1  0.92052100  0.57947900  0.57947900  1
  Li  Li67  1  0.42070200  0.73789300  0.42070200  1
  Li  Li68  1  0.41791100  0.75386100  0.07436600  1
  Li  Li69  1  0.50608300  0.81672400  0.17111100  1
  Li  Li70  1  0.00810900  0.31577200  0.00810900  1
  Li  Li71  1  0.32660700  0.02017800  0.32660700  1
  Li  Li72  1  0.31577200  0.00810900  0.66801000  1
  Li  Li73  1  0.75386100  0.41791100  0.75386100  1
  Li  Li74  1  0.17111100  0.81672400  0.50608300  1
  Li  Li75  1  0.75386100  0.07436600  0.75386100  1
  Li  Li76  1  0.31577200  0.00810900  0.00810900  1
  Li  Li77  1  0.50608300  0.50608300  0.17111100  1
  Li  Li78  1  0.92448700  0.56307000  0.25622200  1
  Li  Li79  1  0.50608300  0.81672400  0.50608300  1
  Li  Li80  1  0.92448700  0.25622200  0.25622200  1
  Li  Li81  1  0.75386100  0.75386100  0.41791100  1
  Li  Li82  1  0.75000000  0.75000000  0.75000000  1
  Li  Li83  1  0.58155300  0.58155300  0.25534000  1
  Li  Li84  1  0.00810900  0.00810900  0.66801000  1
  Li  Li85  1  0.17111100  0.50608300  0.50608300  1
  Li  Li86  1  0.25534000  0.58155300  0.58155300  1
  Li  Li87  1  0.07412500  0.77762500  0.07412500  1
  Pb  Pb88  1  0.91185100  0.26444800  0.91185100  1
  Pb  Pb89  1  0.32423600  0.32423600  0.67576400  1
  Pb  Pb90  1  0.66641300  0.00076200  0.66641300  1
  Pb  Pb91  1  0.67576400  0.32423600  0.67576400  1
  Pb  Pb92  1  0.66641300  0.66641300  0.00076200  1
  Pb  Pb93  1  0.42511500  0.07488500  0.07488500  1
  Pb  Pb94  1  0.26444800  0.91185100  0.91185100  1
  Pb  Pb95  1  0.07488500  0.07488500  0.42511500  1
  Pb  Pb96  1  0.32423600  0.67576400  0.32423600  1
  Pb  Pb97  1  0.42511500  0.07488500  0.42511500  1
  Pb  Pb98  1  0.00076200  0.66641300  0.66641300  1
  Pb  Pb99  1  0.67576400  0.32423600  0.32423600  1
  Pb  Pb100  1  0.07488500  0.42511500  0.07488500  1
  Pb  Pb101  1  0.67576400  0.67576400  0.32423600  1
  Pb  Pb102  1  0.42511500  0.42511500  0.07488500  1
  Pb  Pb103  1  0.32423600  0.67576400  0.67576400  1
  Pb  Pb104  1  0.07488500  0.42511500  0.42511500  1
  Pb  Pb105  1  0.91185100  0.91185100  0.26444800  1
  Pb  Pb106  1  0.66641300  0.66641300  0.66641300  1
  Pb  Pb107  1  0.91185100  0.91185100  0.91185100  1
