# generated using pymatgen
data_Li17Pb4
_symmetry_space_group_name_H-M   'P 1'
_cell_length_a   14.10542643
_cell_length_b   14.10542619
_cell_length_c   14.10542676
_cell_angle_alpha   60.00000106
_cell_angle_beta   60.00000162
_cell_angle_gamma   60.00000190
_symmetry_Int_Tables_number   1
_chemical_formula_structural   Li17Pb4
_chemical_formula_sum   'Li85 Pb20'
_cell_volume   1984.46608205
_cell_formula_units_Z   5
loop_
 _symmetry_equiv_pos_site_id
 _symmetry_equiv_pos_as_xyz
  1  'x, y, z'
loop_
 _atom_site_type_symbol
 _atom_site_label
 _atom_site_symmetry_multiplicity
 _atom_site_fract_x
 _atom_site_fract_y
 _atom_site_fract_z
 _atom_site_occupancy
  Li  Li0  1  0.43377809  0.69866572  0.43377809  1
  Li  Li1  1  0.57842689  0.57842689  0.26471932  1
  Li  Li2  1  0.16898830  0.51109208  0.80882755  1
  Li  Li3  1  0.26956517  0.92242923  0.53844044  1
  Li  Li4  1  0.01686223  0.67021239  0.01686223  1
  Li  Li5  1  0.92242923  0.53844044  0.26956517  1
  Li  Li6  1  0.57842689  0.26471932  0.57842689  1
  Li  Li7  1  0.06895973  0.75736585  0.41630858  1
  Li  Li8  1  0.05324966  0.05324966  0.84025103  1
  Li  Li9  1  0.41630858  0.06895973  0.75736585  1
  Li  Li10  1  0.05324966  0.84025103  0.05324966  1
  Li  Li11  1  0.80882755  0.51109208  0.51109208  1
  Li  Li12  1  0.43377809  0.43377809  0.43377809  1
  Li  Li13  1  0.82458752  0.82458752  0.82458752  1
  Li  Li14  1  0.06895973  0.75736585  0.75736585  1
  Li  Li15  1  0.57794574  0.92205426  0.57794574  1
  Li  Li16  1  0.06895973  0.41630858  0.75736585  1
  Li  Li17  1  0.16898830  0.80882755  0.51109208  1
  Li  Li18  1  0.26956517  0.53844044  0.92242923  1
  Li  Li19  1  0.67021239  0.29606316  0.01686223  1
  Li  Li20  1  0.57794574  0.92205426  0.92205426  1
  Li  Li21  1  0.82571080  0.82571080  0.17428920  1
  Li  Li22  1  0.52623744  0.82458752  0.82458752  1
  Li  Li23  1  0.82571080  0.17428920  0.17428920  1
  Li  Li24  1  0.29606316  0.01686223  0.67021239  1
  Li  Li25  1  0.57842689  0.57842689  0.57842689  1
  Li  Li26  1  0.84025103  0.05324966  0.05324966  1
  Li  Li27  1  0.51109208  0.80882755  0.51109208  1
  Li  Li28  1  0.05324966  0.05324966  0.05324966  1
  Li  Li29  1  0.41630858  0.75736585  0.75736585  1
  Li  Li30  1  0.16644844  0.16644844  0.16644844  1
  Li  Li31  1  0.17428920  0.82571080  0.17428920  1
  Li  Li32  1  0.29606316  0.01686223  0.01686223  1
  Li  Li33  1  0.82458752  0.82458752  0.52623744  1
  Li  Li34  1  0.75736585  0.06895973  0.75736585  1
  Li  Li35  1  0.01686223  0.01686223  0.29606316  1
  Li  Li36  1  0.16644844  0.50065467  0.16644844  1
  Li  Li37  1  0.51109208  0.51109208  0.80882755  1
  Li  Li38  1  0.69866572  0.43377809  0.43377809  1
  Li  Li39  1  0.92242923  0.26956517  0.26956517  1
  Li  Li40  1  0.82458752  0.52623744  0.82458752  1
  Li  Li41  1  0.26956517  0.92242923  0.26956517  1
  Li  Li42  1  0.16644844  0.16644844  0.50065467  1
  Li  Li43  1  0.01686223  0.29606316  0.67021239  1
  Li  Li44  1  0.16898830  0.51109208  0.51109208  1
  Li  Li45  1  0.75736585  0.41630858  0.06895973  1
  Li  Li46  1  0.01686223  0.29606316  0.01686223  1
  Li  Li47  1  0.26956517  0.53844044  0.26956517  1
  Li  Li48  1  0.75736585  0.06895973  0.41630858  1
  Li  Li49  1  0.67021239  0.01686223  0.01686223  1
  Li  Li50  1  0.30548761  0.30548761  0.30548761  1
  Li  Li51  1  0.51109208  0.80882755  0.16898830  1
  Li  Li52  1  0.53844044  0.26956517  0.92242923  1
  Li  Li53  1  0.01686223  0.01686223  0.67021239  1
  Li  Li54  1  0.92205426  0.57794574  0.57794574  1
  Li  Li55  1  0.51109208  0.51109208  0.16898830  1
  Li  Li56  1  0.75736585  0.75736585  0.06895973  1
  Li  Li57  1  0.26471932  0.57842689  0.57842689  1
  Li  Li58  1  0.50065467  0.16644844  0.16644844  1
  Li  Li59  1  0.43377809  0.43377809  0.69866572  1
  Li  Li60  1  0.80882755  0.51109208  0.16898830  1
  Li  Li61  1  0.92205426  0.57794574  0.92205426  1
  Li  Li62  1  0.29606316  0.67021239  0.01686223  1
  Li  Li63  1  0.30548761  0.30548761  0.08353718  1
  Li  Li64  1  0.75736585  0.41630858  0.75736585  1
  Li  Li65  1  0.51109208  0.16898830  0.80882755  1
  Li  Li66  1  0.67021239  0.01686223  0.29606316  1
  Li  Li67  1  0.57794574  0.57794574  0.92205426  1
  Li  Li68  1  0.08353718  0.30548761  0.30548761  1
  Li  Li69  1  0.53844044  0.26956517  0.26956517  1
  Li  Li70  1  0.01686223  0.67021239  0.29606316  1
  Li  Li71  1  0.80882755  0.16898830  0.51109208  1
  Li  Li72  1  0.75000000  0.75000000  0.75000000  1
  Li  Li73  1  0.17428920  0.82571080  0.82571080  1
  Li  Li74  1  0.17428920  0.17428920  0.82571080  1
  Li  Li75  1  0.41630858  0.75736585  0.06895973  1
  Li  Li76  1  0.82571080  0.17428920  0.82571080  1
  Li  Li77  1  0.92205426  0.92205426  0.57794574  1
  Li  Li78  1  0.75736585  0.75736585  0.41630858  1
  Li  Li79  1  0.92242923  0.26956517  0.53844044  1
  Li  Li80  1  0.53844044  0.92242923  0.26956517  1
  Li  Li81  1  0.30548761  0.08353718  0.30548761  1
  Li  Li82  1  0.26956517  0.26956517  0.53844044  1
  Li  Li83  1  0.51109208  0.16898830  0.51109208  1
  Li  Li84  1  0.26956517  0.26956517  0.92242923  1
  Pb  Pb85  1  0.00057464  0.66647512  0.66647512  1
  Pb  Pb86  1  0.67918154  0.32081846  0.32081846  1
  Pb  Pb87  1  0.66647512  0.66647512  0.66647512  1
  Pb  Pb88  1  0.32081846  0.32081846  0.67918154  1
  Pb  Pb89  1  0.66647512  0.66647512  0.00057464  1
  Pb  Pb90  1  0.90986256  0.90986256  0.27041232  1
  Pb  Pb91  1  0.32081846  0.67918154  0.32081846  1
  Pb  Pb92  1  0.66647512  0.00057464  0.66647512  1
  Pb  Pb93  1  0.67918154  0.32081846  0.67918154  1
  Pb  Pb94  1  0.07068069  0.42931931  0.42931931  1
  Pb  Pb95  1  0.07068069  0.42931931  0.07068069  1
  Pb  Pb96  1  0.32081846  0.67918154  0.67918154  1
  Pb  Pb97  1  0.42931931  0.07068069  0.42931931  1
  Pb  Pb98  1  0.67918154  0.67918154  0.32081846  1
  Pb  Pb99  1  0.90986256  0.90986256  0.90986256  1
  Pb  Pb100  1  0.27041232  0.90986256  0.90986256  1
  Pb  Pb101  1  0.07068069  0.07068069  0.42931931  1
  Pb  Pb102  1  0.90986256  0.27041232  0.90986256  1
  Pb  Pb103  1  0.42931931  0.07068069  0.07068069  1
  Pb  Pb104  1  0.42931931  0.42931931  0.07068069  1
