# generated using pymatgen
data_LiCo5(P2O7)4
_symmetry_space_group_name_H-M   'P 1'
_cell_length_a   12.41098250
_cell_length_b   9.18492398
_cell_length_c   10.58225512
_cell_angle_alpha   63.68377811
_cell_angle_beta   85.08452924
_cell_angle_gamma   72.90927106
_symmetry_Int_Tables_number   1
_chemical_formula_structural   LiCo5(P2O7)4
_chemical_formula_sum   'Li2 Co10 P16 O56'
_cell_volume   1032.14118393
_cell_formula_units_Z   2
loop_
 _symmetry_equiv_pos_site_id
 _symmetry_equiv_pos_as_xyz
  1  'x, y, z'
loop_
 _atom_site_type_symbol
 _atom_site_label
 _atom_site_symmetry_multiplicity
 _atom_site_fract_x
 _atom_site_fract_y
 _atom_site_fract_z
 _atom_site_occupancy
  Li  Li0  1  0.25000000  0.50000000  0.50000000  1
  Li  Li1  1  0.75000000  0.50000000  0.50000000  1
  Co  Co2  1  0.50808846  0.82646449  0.98505469  1
  Co  Co3  1  0.35624262  0.88930779  0.71987878  1
  Co  Co4  1  0.31410213  0.50232355  0.75515280  1
  Co  Co5  1  0.68536284  0.49684451  0.24163047  1
  Co  Co6  1  0.63799747  0.09082774  0.28684598  1
  Co  Co7  1  0.86200253  0.90917226  0.71315402  1
  Co  Co8  1  0.18589787  0.49767645  0.24484720  1
  Co  Co9  1  0.14375738  0.11069221  0.28012122  1
  Co  Co10  1  0.81463716  0.50315549  0.75836953  1
  Co  Co11  1  0.99191154  0.17353551  0.01494531  1
  P  P12  1  0.53814537  0.80252041  0.28744346  1
  P  P13  1  0.44473035  0.44545825  0.19976817  1
  P  P14  1  0.44950282  0.17247642  0.70661884  1
  P  P15  1  0.65094589  0.18873882  0.53632553  1
  P  P16  1  0.84905411  0.81126118  0.46367447  1
  P  P17  1  0.94316405  0.44158701  0.20275999  1
  P  P18  1  0.29282817  0.68849162  0.96060664  1
  P  P19  1  0.05049718  0.82752358  0.29338116  1
  P  P20  1  0.34819504  0.80379570  0.46511526  1
  P  P21  1  0.55683595  0.55841299  0.79724001  1
  P  P22  1  0.15180496  0.19620430  0.53488474  1
  P  P23  1  0.78639208  0.69838710  0.95227154  1
  P  P24  1  0.20717183  0.31150838  0.03939336  1
  P  P25  1  0.71360792  0.30161290  0.04772846  1
  P  P26  1  0.05526965  0.55454175  0.80023183  1
  P  P27  1  0.96185463  0.19747959  0.71255654  1
  O  O28  1  0.68840066  0.34506752  0.43979575  1
  O  O29  1  0.77376630  0.68482845  0.81372400  1
  O  O30  1  0.72559793  0.07989980  0.67310493  1
  O  O31  1  0.34076441  0.48300495  0.28182069  1
  O  O32  1  0.52588633  0.54753691  0.19312346  1
  O  O33  1  0.39610085  0.52441302  0.03810971  1
  O  O34  1  0.15229887  0.67478645  0.30730756  1
  O  O35  1  0.16317085  0.15322937  0.07804724  1
  O  O36  1  0.30909496  0.32924979  0.95126282  1
  O  O37  1  0.65903730  0.53910659  0.70746949  1
  O  O38  1  0.45790033  0.71048813  0.40827664  1
  O  O39  1  0.19090504  0.67075021  0.04873718  1
  O  O40  1  0.94777175  0.06404050  0.67472292  1
  O  O41  1  0.47287016  0.48170227  0.77101687  1
  O  O42  1  0.41799361  0.07265421  0.63838072  1
  O  O43  1  0.10389915  0.47558698  0.96189029  1
  O  O44  1  0.81872049  0.32025260  0.95628893  1
  O  O45  1  0.89036791  0.54424691  0.04190098  1
  O  O46  1  0.96589214  0.73595190  0.40533455  1
  O  O47  1  0.02712984  0.51829773  0.22898313  1
  O  O48  1  0.81159934  0.65493248  0.56020425  1
  O  O49  1  0.86547169  0.91877764  0.53200443  1
  O  O50  1  0.33682915  0.84677063  0.92195276  1
  O  O51  1  0.84096270  0.46089341  0.29253051  1
  O  O52  1  0.68127951  0.67974740  0.04371107  1
  O  O53  1  0.68396883  0.13678021  0.09200692  1
  O  O54  1  0.77440207  0.92010020  0.32689507  1
  O  O55  1  0.11420705  0.11781208  0.45172728  1
  O  O56  1  0.15923559  0.51699505  0.71817931  1
  O  O57  1  0.53410786  0.26404810  0.59466545  1
  O  O58  1  0.00167481  0.73983618  0.76204471  1
  O  O59  1  0.50784923  0.05812374  0.85194517  1
  O  O60  1  0.99215077  0.94187626  0.14805483  1
  O  O61  1  0.65075485  0.66294274  0.31197726  1
  O  O62  1  0.08200639  0.92734579  0.36161928  1
  O  O63  1  0.28392894  0.94839323  0.32834228  1
  O  O64  1  0.99488217  0.26339440  0.20578439  1
  O  O65  1  0.63452831  0.08122236  0.46799557  1
  O  O66  1  0.34770113  0.32521355  0.69269244  1
  O  O67  1  0.81603117  0.86321979  0.90799308  1
  O  O68  1  0.02314126  0.12498433  0.85516489  1
  O  O69  1  0.84924515  0.33705726  0.68802274  1
  O  O70  1  0.55222825  0.93595950  0.32527708  1
  O  O71  1  0.50511783  0.73660560  0.79421561  1
  O  O72  1  0.38579295  0.88218792  0.54827272  1
  O  O73  1  0.72623370  0.31517155  0.18627600  1
  O  O74  1  0.29446919  0.66210190  0.55431073  1
  O  O75  1  0.04209967  0.28951187  0.59172336  1
  O  O76  1  0.20553081  0.33789810  0.44568927  1
  O  O77  1  0.47685874  0.87501567  0.14483511  1
  O  O78  1  0.60963209  0.45575309  0.95809902  1
  O  O79  1  0.21607106  0.05160677  0.67165772  1
  O  O80  1  0.97411367  0.45246309  0.80687654  1
  O  O81  1  0.21884978  0.30034744  0.19087274  1
  O  O82  1  0.49832519  0.26016382  0.23795529  1
  O  O83  1  0.28115022  0.69965256  0.80912726  1
