# generated using pymatgen
data_RbLiSO4
_symmetry_space_group_name_H-M   'P 1'
_cell_length_a   5.24518981
_cell_length_b   8.69061981
_cell_length_c   9.01933054
_cell_angle_alpha   90.00000000
_cell_angle_beta   90.36024907
_cell_angle_gamma   90.00000000
_symmetry_Int_Tables_number   1
_chemical_formula_structural   RbLiSO4
_chemical_formula_sum   'Rb4 Li4 S4 O16'
_cell_volume   411.12859003
_cell_formula_units_Z   4
loop_
 _symmetry_equiv_pos_site_id
 _symmetry_equiv_pos_as_xyz
  1  'x, y, z'
loop_
 _atom_site_type_symbol
 _atom_site_label
 _atom_site_symmetry_multiplicity
 _atom_site_fract_x
 _atom_site_fract_y
 _atom_site_fract_z
 _atom_site_occupancy
  Rb  Rb0  1  0.23236388  0.50559554  0.22930104  1
  Rb  Rb1  1  0.26763612  0.00559554  0.27069896  1
  Rb  Rb2  1  0.76763612  0.49440446  0.77069896  1
  Rb  Rb3  1  0.73236388  0.99440446  0.72930104  1
  Li  Li4  1  0.25789537  0.67961304  0.59057581  1
  Li  Li5  1  0.75789537  0.82038696  0.09057581  1
  Li  Li6  1  0.74210463  0.32038696  0.40942419  1
  Li  Li7  1  0.24210463  0.17961304  0.90942419  1
  S  S8  1  0.75392375  0.70578200  0.42403701  1
  S  S9  1  0.74607625  0.20578200  0.07596299  1
  S  S10  1  0.24607625  0.29421800  0.57596299  1
  S  S11  1  0.25392375  0.79421800  0.92403701  1
  O  O12  1  0.91909130  0.74817713  0.55062876  1
  O  O13  1  0.41909130  0.75182287  0.05062876  1
  O  O14  1  0.08090870  0.25182287  0.44937124  1
  O  O15  1  0.58090870  0.24817713  0.94937124  1
  O  O16  1  0.85904338  0.77238455  0.28759432  1
  O  O17  1  0.64095662  0.27238455  0.21240568  1
  O  O18  1  0.14095662  0.22761545  0.71240568  1
  O  O19  1  0.35904338  0.72761545  0.78759432  1
  O  O20  1  0.24379301  0.96226313  0.90974304  1
  O  O21  1  0.25620699  0.46226313  0.59025696  1
  O  O22  1  0.75620699  0.03773687  0.09025696  1
  O  O23  1  0.74379301  0.53773687  0.40974304  1
  O  O24  1  -0.00524009  0.73414413  0.94986528  1
  O  O25  1  0.50524009  0.23414413  0.55013472  1
  O  O26  1  0.00524009  0.26585587  0.05013472  1
  O  O27  1  0.49475991  0.76585587  0.44986528  1
