# generated using pymatgen
data_LiSn5Rh3
_symmetry_space_group_name_H-M   'P 1'
_cell_length_a   5.44537404
_cell_length_b   9.78945598
_cell_length_c   12.86827055
_cell_angle_alpha   90.00000000
_cell_angle_beta   90.00000000
_cell_angle_gamma   90.00000000
_symmetry_Int_Tables_number   1
_chemical_formula_structural   LiSn5Rh3
_chemical_formula_sum   'Li4 Sn20 Rh12'
_cell_volume   685.97210832
_cell_formula_units_Z   4
loop_
 _symmetry_equiv_pos_site_id
 _symmetry_equiv_pos_as_xyz
  1  'x, y, z'
loop_
 _atom_site_type_symbol
 _atom_site_label
 _atom_site_symmetry_multiplicity
 _atom_site_fract_x
 _atom_site_fract_y
 _atom_site_fract_z
 _atom_site_occupancy
  Li  Li0  1  0.59552928  0.10919577  0.25000000  1
  Li  Li1  1  0.59552928  0.39080423  0.75000000  1
  Li  Li2  1  0.40447072  0.60919577  0.25000000  1
  Li  Li3  1  0.40447072  0.89080423  0.75000000  1
  Sn  Sn4  1  0.86684889  0.12631752  0.06324550  1
  Sn  Sn5  1  0.62520431  0.82563321  0.11229441  1
  Sn  Sn6  1  0.13315111  0.87368248  0.56324550  1
  Sn  Sn7  1  0.62520431  0.67436679  0.61229441  1
  Sn  Sn8  1  0.86684889  0.12631752  0.43675450  1
  Sn  Sn9  1  0.13315111  0.62631752  0.06324550  1
  Sn  Sn10  1  0.37479569  0.32563321  0.11229441  1
  Sn  Sn11  1  0.62520431  0.82563321  0.38770559  1
  Sn  Sn12  1  0.13315111  0.87368248  0.93675450  1
  Sn  Sn13  1  0.37479569  0.17436679  0.88770559  1
  Sn  Sn14  1  0.62520431  0.67436679  0.88770559  1
  Sn  Sn15  1  0.37479569  0.32563321  0.38770559  1
  Sn  Sn16  1  0.37479569  0.17436679  0.61229441  1
  Sn  Sn17  1  0.86684889  0.37368248  0.93675450  1
  Sn  Sn18  1  0.84037758  0.42543047  0.25000000  1
  Sn  Sn19  1  0.15962242  0.57456953  0.75000000  1
  Sn  Sn20  1  0.13315111  0.62631752  0.43675450  1
  Sn  Sn21  1  0.84037758  0.07456953  0.75000000  1
  Sn  Sn22  1  0.15962242  0.92543047  0.25000000  1
  Sn  Sn23  1  0.86684889  0.37368248  0.56324550  1
  Rh  Rh24  1  0.64701722  0.55213701  0.42210947  1
  Rh  Rh25  1  0.35298278  0.44786299  0.92210947  1
  Rh  Rh26  1  0.64701722  0.55213701  0.07789053  1
  Rh  Rh27  1  0.64701722  0.94786299  0.92210947  1
  Rh  Rh28  1  0.09492053  0.30368296  0.75000000  1
  Rh  Rh29  1  0.35298278  0.05213701  0.07789053  1
  Rh  Rh30  1  0.35298278  0.05213701  0.42210947  1
  Rh  Rh31  1  0.64701722  0.94786299  0.57789053  1
  Rh  Rh32  1  0.90507947  0.80368296  0.75000000  1
  Rh  Rh33  1  0.90507947  0.69631704  0.25000000  1
  Rh  Rh34  1  0.35298278  0.44786299  0.57789053  1
  Rh  Rh35  1  0.09492053  0.19631704  0.25000000  1
