# generated using pymatgen
data_Li5H9Pt2
_symmetry_space_group_name_H-M   'P 1'
_cell_length_a   7.22427646
_cell_length_b   7.22429302
_cell_length_c   7.22419078
_cell_angle_alpha   110.00403273
_cell_angle_beta   110.00542818
_cell_angle_gamma   108.41249846
_symmetry_Int_Tables_number   1
_chemical_formula_structural   Li5H9Pt2
_chemical_formula_sum   'Li10 H18 Pt4'
_cell_volume   290.15433082
_cell_formula_units_Z   2
loop_
 _symmetry_equiv_pos_site_id
 _symmetry_equiv_pos_as_xyz
  1  'x, y, z'
loop_
 _atom_site_type_symbol
 _atom_site_label
 _atom_site_symmetry_multiplicity
 _atom_site_fract_x
 _atom_site_fract_y
 _atom_site_fract_z
 _atom_site_occupancy
  Li  Li0  1  0.69257626  0.19257989  0.20235163  1
  Li  Li1  1  0.99023211  0.49022525  0.79765974  1
  Li  Li2  1  0.19256670  0.99022710  0.49998646  1
  Li  Li3  1  0.49022915  0.69257292  0.49999066  1
  Li  Li4  1  0.30742408  0.80742047  0.79764808  1
  Li  Li5  1  0.00976804  0.50977461  0.20234031  1
  Li  Li6  1  0.80743358  0.00977331  0.50001393  1
  Li  Li7  1  0.50977068  0.30742719  0.50000956  1
  Li  Li8  1  0.50000033  0.50000016  0.00000028  1
  Li  Li9  1  0.00000013  0.00000019  0.00000015  1
  H  H10  1  0.43870567  0.13692929  0.84697510  1
  H  H11  1  0.28995431  0.59173422  0.15302181  1
  H  H12  1  0.93869190  0.09171366  0.30175685  1
  H  H13  1  0.78994810  0.63693023  0.69825292  1
  H  H14  1  0.59174229  0.43871655  0.30178637  1
  H  H15  1  0.13693254  0.28996062  0.69819128  1
  H  H16  1  0.63693034  0.93871239  0.84697485  1
  H  H17  1  0.09173196  0.78995434  0.15302209  1
  H  H18  1  0.56129417  0.86307083  0.15302487  1
  H  H19  1  0.71004555  0.40826573  0.84697810  1
  H  H20  1  0.06130722  0.90828615  0.69824279  1
  H  H21  1  0.21005158  0.36306989  0.30174776  1
  H  H22  1  0.40825704  0.56128317  0.69821357  1
  H  H23  1  0.86306695  0.71003907  0.30180902  1
  H  H24  1  0.36306963  0.06128766  0.15302522  1
  H  H25  1  0.90826782  0.21004572  0.84697791  1
  H  H26  1  0.49999996  -0.00000004  0.49999991  1
  H  H27  1  -0.00000005  0.50000020  0.50000002  1
  Pt  Pt28  1  0.65800026  0.15800059  0.81600438  1
  Pt  Pt29  1  0.34199949  0.84200004  0.18399587  1
  Pt  Pt30  1  0.15800565  0.34201305  0.50008353  1
  Pt  Pt31  1  0.84199358  0.65798654  0.49991499  1
