# generated using pymatgen
data_Li2H2Pt
_symmetry_space_group_name_H-M   'P 1'
_cell_length_a   5.47802013
_cell_length_b   5.47802013
_cell_length_c   5.47802013
_cell_angle_alpha   147.98603554
_cell_angle_beta   145.72432302
_cell_angle_gamma   47.60357094
_symmetry_Int_Tables_number   1
_chemical_formula_structural   Li2H2Pt
_chemical_formula_sum   'Li2 H2 Pt1'
_cell_volume   48.88634181
_cell_formula_units_Z   1
loop_
 _symmetry_equiv_pos_site_id
 _symmetry_equiv_pos_as_xyz
  1  'x, y, z'
loop_
 _atom_site_type_symbol
 _atom_site_label
 _atom_site_symmetry_multiplicity
 _atom_site_fract_x
 _atom_site_fract_y
 _atom_site_fract_z
 _atom_site_occupancy
  Li  Li0  1  0.63831889  0.63831889  -0.00000000  1
  Li  Li1  1  0.36168111  0.36168111  0.00000000  1
  H  H2  1  0.83526629  0.83526629  -0.00000000  1
  H  H3  1  0.16473371  0.16473371  0.00000000  1
  Pt  Pt4  1  0.00000000  0.00000000  -0.00000000  1
