# generated using pymatgen
data_Li(FeGe)6
_symmetry_space_group_name_H-M   'P 1'
_cell_length_a   8.68812155
_cell_length_b   8.68811980
_cell_length_c   8.10018410
_cell_angle_alpha   89.99981513
_cell_angle_beta   90.00009371
_cell_angle_gamma   119.99911632
_symmetry_Int_Tables_number   1
_chemical_formula_structural   Li(FeGe)6
_chemical_formula_sum   'Li3 Fe18 Ge18'
_cell_volume   529.51842620
_cell_formula_units_Z   3
loop_
 _symmetry_equiv_pos_site_id
 _symmetry_equiv_pos_as_xyz
  1  'x, y, z'
loop_
 _atom_site_type_symbol
 _atom_site_label
 _atom_site_symmetry_multiplicity
 _atom_site_fract_x
 _atom_site_fract_y
 _atom_site_fract_z
 _atom_site_occupancy
  Li  Li0  1  0.00000128  0.00000022  0.49998455  1
  Li  Li1  1  0.66666599  0.33333434  0.00001213  1
  Li  Li2  1  0.33333318  0.66666591  0.00001227  1
  Fe  Fe3  1  0.16679128  0.33357634  0.24694963  1
  Fe  Fe4  1  0.83320616  0.66642354  0.75305038  1
  Fe  Fe5  1  0.66642269  0.83320585  0.75305013  1
  Fe  Fe6  1  0.83320201  0.66641990  0.24694883  1
  Fe  Fe7  1  0.33357902  0.16679576  0.75305050  1
  Fe  Fe8  1  0.50000912  0.00000219  0.25570911  1
  Fe  Fe9  1  0.33357748  0.16679965  0.24694884  1
  Fe  Fe10  1  0.16678521  0.83321027  0.24694883  1
  Fe  Fe11  1  0.83321032  0.16678448  0.75305058  1
  Fe  Fe12  1  0.50000295  0.50000203  0.74428657  1
  Fe  Fe13  1  0.16679565  0.33357964  0.75305111  1
  Fe  Fe14  1  0.66642351  0.83320946  0.24694977  1
  Fe  Fe15  1  -0.00000122  0.50000227  0.74428596  1
  Fe  Fe16  1  0.83321468  0.16678501  0.24695000  1
  Fe  Fe17  1  0.16678359  0.83321140  0.75305028  1
  Fe  Fe18  1  0.49999742  0.50000104  0.25570850  1
  Fe  Fe19  1  0.50000116  -0.00000150  0.74428573  1
  Fe  Fe20  1  -0.00000181  0.49999238  0.25570837  1
  Ge  Ge21  1  0.33334453  0.66666069  0.34197394  1
  Ge  Ge22  1  0.66666128  0.33334616  0.34197357  1
  Ge  Ge23  1  -0.00000740  0.67583389  0.49999342  1
  Ge  Ge24  1  0.65772134  0.65772584  0.00000241  1
  Ge  Ge25  1  0.66666407  0.33333845  0.65805064  1
  Ge  Ge26  1  0.32417431  0.32417959  0.49999904  1
  Ge  Ge27  1  0.33334432  0.66665202  0.65805072  1
  Ge  Ge28  1  0.00000016  0.32415755  0.50000306  1
  Ge  Ge29  1  0.67584393  -0.00000179  0.50000111  1
  Ge  Ge30  1  -0.00001297  0.65772168  0.00000337  1
  Ge  Ge31  1  -0.00000539  -0.00000720  0.15654783  1
  Ge  Ge32  1  0.34227744  0.00000894  0.00000176  1
  Ge  Ge33  1  0.34227707  0.34228299  -0.00000099  1
  Ge  Ge34  1  0.65773217  -0.00000788  -0.00000218  1
  Ge  Ge35  1  -0.00000906  0.00000962  0.84342393  1
  Ge  Ge36  1  0.67582440  0.67582748  0.49999521  1
  Ge  Ge37  1  0.00000525  0.34226863  -0.00000426  1
  Ge  Ge38  1  0.32416489  0.00000319  0.49999533  1
