# generated using pymatgen
data_Li2UBr6
_symmetry_space_group_name_H-M   'P 1'
_cell_length_a   7.11379848
_cell_length_b   28.04034714
_cell_length_c   7.15687368
_cell_angle_alpha   59.30487923
_cell_angle_beta   110.70383343
_cell_angle_gamma   100.39714549
_symmetry_Int_Tables_number   1
_chemical_formula_structural   Li2UBr6
_chemical_formula_sum   'Li8 U4 Br24'
_cell_volume   1148.31469846
_cell_formula_units_Z   4
loop_
 _symmetry_equiv_pos_site_id
 _symmetry_equiv_pos_as_xyz
  1  'x, y, z'
loop_
 _atom_site_type_symbol
 _atom_site_label
 _atom_site_symmetry_multiplicity
 _atom_site_fract_x
 _atom_site_fract_y
 _atom_site_fract_z
 _atom_site_occupancy
  Li  Li0  1  0.00000000  0.91486322  0.67027357  1
  Li  Li1  1  0.00000000  0.83374814  0.33250372  1
  Li  Li2  1  0.00000000  0.41671022  0.66657956  1
  Li  Li3  1  0.50000000  0.57789231  0.84421538  1
  Li  Li4  1  0.50000000  0.67113881  0.15772237  1
  Li  Li5  1  0.50000000  0.32917884  0.84164233  1
  Li  Li6  1  0.50000000  0.07983036  0.84033928  1
  Li  Li7  1  0.50000000  0.17168959  0.15662081  1
  U  U8  1  0.00000000  0.74884418  0.00231164  1
  U  U9  1  0.00000000  0.49969305  0.00061389  1
  U  U10  1  0.00000000  0.24913316  0.00173368  1
  U  U11  1  0.00000000  0.00127195  0.99745610  1
  Br  Br12  1  0.23354942  0.74966221  0.75702541  1
  Br  Br13  1  0.22805489  0.91659536  0.41590412  1
  Br  Br14  1  0.23208352  0.50060062  0.75581006  1
  Br  Br15  1  0.23050289  0.83269221  0.08131675  1
  Br  Br16  1  0.26624782  0.66827791  0.38820700  1
  Br  Br17  1  0.77194511  0.91659536  0.91771445  1
  Br  Br18  1  0.24627738  0.25010982  0.76528220  1
  Br  Br19  1  0.26689682  0.58175434  0.05899604  1
  Br  Br20  1  0.23470416  0.41909081  0.42052102  1
  Br  Br21  1  0.76949711  0.83269221  0.58791440  1
  Br  Br22  1  0.73375218  0.66827791  0.93868137  1
  Br  Br23  1  0.23129171  0.00022982  0.75635791  1
  Br  Br24  1  0.76870829  0.00022982  0.24272282  1
  Br  Br25  1  0.25413970  0.33405233  0.05409147  1
  Br  Br26  1  0.26362493  0.16802653  0.39305264  1
  Br  Br27  1  0.73310318  0.58175434  0.61398660  1
  Br  Br28  1  0.76529584  0.41909081  0.90311575  1
  Br  Br29  1  0.76645058  0.74966221  0.24432575  1
  Br  Br30  1  0.26915291  0.08191113  0.06235059  1
  Br  Br31  1  0.74586030  0.33405233  0.60969919  1
  Br  Br32  1  0.73637507  0.16802653  0.93484123  1
  Br  Br33  1  0.76791648  0.50060062  0.24178746  1
  Br  Br34  1  0.73084709  0.08191113  0.61000488  1
  Br  Br35  1  0.75372262  0.25010982  0.23427852  1
