# generated using pymatgen
data_Li27Sb10
_symmetry_space_group_name_H-M   'P 1'
_cell_length_a   9.24173639
_cell_length_b   22.94777205
_cell_length_c   7.93429274
_cell_angle_alpha   30.22966260
_cell_angle_beta   54.48347497
_cell_angle_gamma   59.91384063
_symmetry_Int_Tables_number   1
_chemical_formula_structural   Li27Sb10
_chemical_formula_sum   'Li27 Sb10'
_cell_volume   689.55632800
_cell_formula_units_Z   1
loop_
 _symmetry_equiv_pos_site_id
 _symmetry_equiv_pos_as_xyz
  1  'x, y, z'
loop_
 _atom_site_type_symbol
 _atom_site_label
 _atom_site_symmetry_multiplicity
 _atom_site_fract_x
 _atom_site_fract_y
 _atom_site_fract_z
 _atom_site_occupancy
  Li  Li0  1  0.10374939  0.19771446  0.26711688  1
  Li  Li1  1  0.25177275  0.21033166  0.47331041  1
  Li  Li2  1  0.39625061  0.00228554  0.73288312  1
  Li  Li3  1  0.13200681  0.41784916  0.19353432  1
  Li  Li4  1  0.63615774  0.18863518  0.28160409  1
  Li  Li5  1  0.39629730  0.19736153  0.74614297  1
  Li  Li6  1  0.25141820  0.39440726  0.51327158  1
  Li  Li7  1  0.13482071  0.60036431  0.26182588  1
  Li  Li8  1  0.13267271  0.78202126  0.28305494  1
  Li  Li9  1  0.63183572  0.38757703  0.26579969  1
  Li  Li10  1  0.36732729  0.41797874  0.71694506  1
  Li  Li11  1  0.86384226  0.01136482  0.71839591  1
  Li  Li12  1  0.10370270  0.00263847  0.25385703  1
  Li  Li13  1  0.86486200  0.18851014  0.77475091  1
  Li  Li14  1  0.74870668  0.39244971  0.51816282  1
  Li  Li15  1  0.60538404  0.59974156  0.25869670  1
  Li  Li16  1  0.24858180  0.80559274  0.48672842  1
  Li  Li17  1  0.36517929  0.59963569  0.73817412  1
  Li  Li18  1  0.24822725  0.98966834  0.52668959  1
  Li  Li19  1  0.86854812  0.38729623  0.79590314  1
  Li  Li20  1  0.75000000  0.60000000  0.50000000  1
  Li  Li21  1  0.63145188  0.81270377  0.20409686  1
  Li  Li22  1  0.36799319  0.78215084  0.80646568  1
  Li  Li23  1  0.75129332  0.80755029  0.48183718  1
  Li  Li24  1  0.63513800  0.01148986  0.22524909  1
  Li  Li25  1  0.89461596  0.60025844  0.74130330  1
  Li  Li26  1  0.86816428  0.81242297  0.73420031  1
  Sb  Sb27  1  0.01386030  0.99076690  0.00074787  1
  Sb  Sb28  1  0.01447652  0.20898723  0.95463991  1
  Sb  Sb29  1  0.48552348  0.99101277  0.04536009  1
  Sb  Sb30  1  0.99910124  0.39800042  0.00880082  1
  Sb  Sb31  1  0.48613970  0.20923310  0.99925213  1
  Sb  Sb32  1  0.98810888  0.60015898  0.02650090  1
  Sb  Sb33  1  0.50089417  0.39757589  0.00214849  1
  Sb  Sb34  1  0.99910583  0.80242411  0.99785151  1
  Sb  Sb35  1  0.51189112  0.59984102  0.97349910  1
  Sb  Sb36  1  0.50089876  0.80199958  0.99119918  1
