# generated using pymatgen
data_Li2FeCl4
_symmetry_space_group_name_H-M   'P 1'
_cell_length_a   7.40036347
_cell_length_b   7.27066673
_cell_length_c   36.26454222
_cell_angle_alpha   61.02041182
_cell_angle_beta   60.82744497
_cell_angle_gamma   60.51551052
_symmetry_Int_Tables_number   1
_chemical_formula_structural   Li2FeCl4
_chemical_formula_sum   'Li20 Fe10 Cl40'
_cell_volume   1404.19509509
_cell_formula_units_Z   10
loop_
 _symmetry_equiv_pos_site_id
 _symmetry_equiv_pos_as_xyz
  1  'x, y, z'
loop_
 _atom_site_type_symbol
 _atom_site_label
 _atom_site_symmetry_multiplicity
 _atom_site_fract_x
 _atom_site_fract_y
 _atom_site_fract_z
 _atom_site_occupancy
  Li  Li0  1  0.37170156  0.04569914  0.00920690  1
  Li  Li1  1  0.49673376  0.48654715  0.00605442  1
  Li  Li2  1  0.49501997  0.01098142  0.10062222  1
  Li  Li3  1  0.50689078  0.99313142  0.20201594  1
  Li  Li4  1  0.50042918  0.99710305  0.30052960  1
  Li  Li5  1  0.49850901  0.98880154  0.40624585  1
  Li  Li6  1  0.98960404  0.50219003  0.49946079  1
  Li  Li7  1  0.50682144  0.00209018  0.49815121  1
  Li  Li8  1  0.01563253  0.05935216  0.67730982  1
  Li  Li9  1  0.45200211  0.03860602  0.59420546  1
  Li  Li10  1  0.01659676  0.49951372  0.69556293  1
  Li  Li11  1  0.49900586  0.01727362  0.69666167  1
  Li  Li12  1  0.51930612  0.50027423  0.59517322  1
  Li  Li13  1  0.99687539  0.03205308  0.89224942  1
  Li  Li14  1  0.44058437  0.03833991  0.79863204  1
  Li  Li15  1  0.97712107  0.49128419  0.90733232  1
  Li  Li16  1  0.49885937  -0.00007267  0.90206093  1
  Li  Li17  1  0.92150399  0.84758028  0.57174300  1
  Li  Li18  1  0.92290610  0.81426158  0.78223541  1
  Li  Li19  1  0.91389750  0.81646419  0.98447500  1
  Fe  Fe20  1  0.99692635  0.49076662  0.10578538  1
  Fe  Fe21  1  0.48386159  0.48968032  0.10377664  1
  Fe  Fe22  1  0.49999205  0.49841767  0.20123522  1
  Fe  Fe23  1  0.49955058  0.50054953  0.29929858  1
  Fe  Fe24  1  0.51242463  0.49392583  0.39926459  1
  Fe  Fe25  1  0.00110121  0.49900693  0.29984647  1
  Fe  Fe26  1  0.50797322  0.49918363  0.49379870  1
  Fe  Fe27  1  0.50407214  0.49548602  0.69944635  1
  Fe  Fe28  1  0.50712681  0.49549248  0.80404682  1
  Fe  Fe29  1  0.49863060  0.49663207  0.89588717  1
  Cl  Cl30  1  0.24275083  0.27081933  0.05303739  1
  Cl  Cl31  1  0.24920825  0.25634940  0.14978565  1
  Cl  Cl32  1  0.24190487  0.73521083  0.05507275  1
  Cl  Cl33  1  0.71499668  0.27040347  0.05519217  1
  Cl  Cl34  1  0.28249001  0.72470715  0.15002973  1
  Cl  Cl35  1  0.25964173  0.26716039  0.24871007  1
  Cl  Cl36  1  0.74209633  0.26124924  0.15040065  1
  Cl  Cl37  1  0.25636261  0.27314350  0.34358669  1
  Cl  Cl38  1  0.25512119  0.74079491  0.25054756  1
  Cl  Cl39  1  0.73442472  0.73317390  0.05923596  1
  Cl  Cl40  1  0.73948188  0.73295387  0.15273234  1
  Cl  Cl41  1  0.71897013  0.27073236  0.25074312  1
  Cl  Cl42  1  0.29060308  0.72631366  0.34779596  1
  Cl  Cl43  1  0.28253952  0.26366007  0.44483152  1
  Cl  Cl44  1  0.75190510  0.26358302  0.34633027  1
  Cl  Cl45  1  0.74527343  0.73259481  0.25367768  1
  Cl  Cl46  1  0.26012471  0.27930103  0.54204060  1
  Cl  Cl47  1  0.27252225  0.74362438  0.44629410  1
  Cl  Cl48  1  0.74729074  0.73163413  0.34947377  1
  Cl  Cl49  1  0.73785071  0.26114234  0.44788697  1
  Cl  Cl50  1  0.29323326  0.73053821  0.54581106  1
  Cl  Cl51  1  0.25721371  0.24033899  0.65111108  1
  Cl  Cl52  1  0.73701596  0.24711085  0.54939975  1
  Cl  Cl53  1  0.73623857  0.72946986  0.45339097  1
  Cl  Cl54  1  0.25369163  0.74368001  0.65327161  1
  Cl  Cl55  1  0.26040321  0.27466992  0.74510334  1
  Cl  Cl56  1  0.72735105  0.75788631  0.55191753  1
  Cl  Cl57  1  0.72193121  0.26099151  0.65179776  1
  Cl  Cl58  1  0.29703295  0.72745274  0.74983186  1
  Cl  Cl59  1  0.26331366  0.25778878  0.84916801  1
  Cl  Cl60  1  0.26399821  0.26905104  0.94446266  1
  Cl  Cl61  1  0.74632872  0.23704696  0.75185671  1
  Cl  Cl62  1  0.25246675  0.75195738  0.84976656  1
  Cl  Cl63  1  0.74020874  0.72812812  0.65567922  1
  Cl  Cl64  1  0.74170620  0.25354494  0.84962758  1
  Cl  Cl65  1  0.73353867  0.75072707  0.75442751  1
  Cl  Cl66  1  0.28327744  0.74270438  0.94525642  1
  Cl  Cl67  1  0.75356239  0.24264220  0.94820441  1
  Cl  Cl68  1  0.73049176  0.73236274  0.85687705  1
  Cl  Cl69  1  0.75477707  0.76774090  0.94831987  1
