# generated using pymatgen
data_Li3H4Rh
_symmetry_space_group_name_H-M   'P 1'
_cell_length_a   4.81284334
_cell_length_b   4.81284334
_cell_length_c   8.76663544
_cell_angle_alpha   90.00000000
_cell_angle_beta   90.00000000
_cell_angle_gamma   45.65369735
_symmetry_Int_Tables_number   1
_chemical_formula_structural   Li3H4Rh
_chemical_formula_sum   'Li6 H8 Rh2'
_cell_volume   145.21792694
_cell_formula_units_Z   2
loop_
 _symmetry_equiv_pos_site_id
 _symmetry_equiv_pos_as_xyz
  1  'x, y, z'
loop_
 _atom_site_type_symbol
 _atom_site_label
 _atom_site_symmetry_multiplicity
 _atom_site_fract_x
 _atom_site_fract_y
 _atom_site_fract_z
 _atom_site_occupancy
  Li  Li0  1  0.83800736  0.83800736  0.42957206  1
  Li  Li1  1  0.16199264  0.16199264  0.57042794  1
  Li  Li2  1  0.83800736  0.83800736  0.07042794  1
  Li  Li3  1  0.16199264  0.16199264  0.92957206  1
  Li  Li4  1  0.51208573  0.51208573  0.25000000  1
  Li  Li5  1  0.48791427  0.48791427  0.75000000  1
  H  H6  1  0.06482695  0.06482695  0.12278103  1
  H  H7  1  0.93517305  0.93517305  0.87721897  1
  H  H8  1  0.06482695  0.06482695  0.37721897  1
  H  H9  1  0.93517305  0.93517305  0.62278103  1
  H  H10  1  0.33295048  0.33295048  0.38700795  1
  H  H11  1  0.66704952  0.66704952  0.61299205  1
  H  H12  1  0.33295048  0.33295048  0.11299205  1
  H  H13  1  0.66704952  0.66704952  0.88700795  1
  Rh  Rh14  1  0.20324912  0.20324912  0.25000000  1
  Rh  Rh15  1  0.79675088  0.79675088  0.75000000  1
