# generated using pymatgen
data_Li15(NiO2)14
_symmetry_space_group_name_H-M   'P 1'
_cell_length_a   5.20489365
_cell_length_b   5.20489358
_cell_length_c   71.40190876
_cell_angle_alpha   32.51114961
_cell_angle_beta   32.51115087
_cell_angle_gamma   32.77596516
_symmetry_Int_Tables_number   1
_chemical_formula_structural   Li15(NiO2)14
_chemical_formula_sum   'Li15 Ni14 O28'
_cell_volume   499.31656712
_cell_formula_units_Z   1
loop_
 _symmetry_equiv_pos_site_id
 _symmetry_equiv_pos_as_xyz
  1  'x, y, z'
loop_
 _atom_site_type_symbol
 _atom_site_label
 _atom_site_symmetry_multiplicity
 _atom_site_fract_x
 _atom_site_fract_y
 _atom_site_fract_z
 _atom_site_occupancy
  Li  Li0  1  0.68629700  0.68629700  0.03780200  1
  Li  Li1  1  0.35163700  0.35163700  0.09986400  1
  Li  Li2  1  0.89808400  0.89808400  0.15643500  1
  Li  Li3  1  0.96979200  0.96979200  0.21874700  1
  Li  Li4  1  0.99867900  0.99867900  0.35735300  1
  Li  Li5  1  0.99125300  0.99125300  0.28709700  1
  Li  Li6  1  0.99802400  0.99802400  0.50030200  1
  Li  Li7  1  0.00001300  0.00001300  0.42857400  1
  Li  Li8  1  0.00214900  0.00214900  0.64252200  1
  Li  Li9  1  0.99878500  0.99878500  0.57160500  1
  Li  Li10  1  0.00331500  0.00331500  0.71378900  1
  Li  Li11  1  0.00769500  0.00769500  0.78460000  1
  Li  Li12  1  0.02360900  0.02360900  0.85367400  1
  Li  Li13  1  0.61082000  0.61082000  0.97794000  1
  Li  Li14  1  0.07740500  0.07740500  0.91865800  1
  Ni  Ni15  1  0.48498100  0.48498100  0.03416800  1
  Ni  Ni16  1  0.51220100  0.51220100  0.10881500  1
  Ni  Ni17  1  0.48456300  0.48456300  0.18160900  1
  Ni  Ni18  1  0.48745700  0.48745700  0.25207300  1
  Ni  Ni19  1  0.49547000  0.49547000  0.32212100  1
  Ni  Ni20  1  0.49898000  0.49898000  0.39295900  1
  Ni  Ni21  1  0.49953300  0.49953300  0.46431900  1
  Ni  Ni22  1  0.49984200  0.49984200  0.53574800  1
  Ni  Ni23  1  0.50041900  0.50041900  0.60707700  1
  Ni  Ni24  1  0.50160600  0.50160600  0.67832100  1
  Ni  Ni25  1  0.50416800  0.50416800  0.74939700  1
  Ni  Ni26  1  0.50927500  0.50927500  0.82013000  1
  Ni  Ni27  1  0.51453300  0.51453300  0.89084200  1
  Ni  Ni28  1  0.50523500  0.50523500  0.96086000  1
  O  O29  1  0.25024800  0.25024800  0.01273000  1
  O  O30  1  0.25371300  0.25371300  0.08775400  1
  O  O31  1  0.74106800  0.74106800  0.05607400  1
  O  O32  1  0.21599400  0.21599400  0.16539700  1
  O  O33  1  0.73631700  0.73631700  0.13030000  1
  O  O34  1  0.23101000  0.23101000  0.23325600  1
  O  O35  1  0.73315100  0.73315100  0.20137300  1
  O  O36  1  0.24355100  0.24355100  0.30266100  1
  O  O37  1  0.73884100  0.73884100  0.27139000  1
  O  O38  1  0.24934400  0.24934400  0.37316300  1
  O  O39  1  0.74552700  0.74552700  0.34189500  1
  O  O40  1  0.25163500  0.25163500  0.44419600  1
  O  O41  1  0.74896400  0.74896400  0.41275200  1
  O  O42  1  0.24996700  0.24996700  0.51593700  1
  O  O43  1  0.74808000  0.74808000  0.48435300  1
  O  O44  1  0.25082200  0.25082200  0.58723100  1
  O  O45  1  0.74960400  0.74960400  0.55556800  1
  O  O46  1  0.25133700  0.25133700  0.65858800  1
  O  O47  1  0.75011100  0.75011100  0.62688500  1
  O  O48  1  0.25318800  0.25318800  0.72973600  1
  O  O49  1  0.75104200  0.75104200  0.69816400  1
  O  O50  1  0.25873800  0.25873800  0.80046800  1
  O  O51  1  0.75452500  0.75452500  0.76909600  1
  O  O52  1  0.26383300  0.26383300  0.87120300  1
  O  O53  1  0.76235800  0.76235800  0.83947500  1
  O  O54  1  0.25266100  0.25266100  0.94342800  1
  O  O55  1  0.77514700  0.77514700  0.90840200  1
  O  O56  1  0.79840400  0.79840400  0.97577100  1
