# generated using pymatgen
data_Li5Cr2P5O18
_symmetry_space_group_name_H-M   'P 1'
_cell_length_a   9.29274500
_cell_length_b   10.59599820
_cell_length_c   6.45620265
_cell_angle_alpha   93.10239672
_cell_angle_beta   91.07546124
_cell_angle_gamma   95.93002692
_symmetry_Int_Tables_number   1
_chemical_formula_structural   Li5Cr2P5O18
_chemical_formula_sum   'Li10 Cr4 P10 O36'
_cell_volume   631.19736192
_cell_formula_units_Z   2
loop_
 _symmetry_equiv_pos_site_id
 _symmetry_equiv_pos_as_xyz
  1  'x, y, z'
loop_
 _atom_site_type_symbol
 _atom_site_label
 _atom_site_symmetry_multiplicity
 _atom_site_fract_x
 _atom_site_fract_y
 _atom_site_fract_z
 _atom_site_occupancy
  Li  Li0  1  0.87063100  0.98410500  0.06187100  1
  Li  Li1  1  0.12936900  0.01589500  0.93812900  1
  Li  Li2  1  0.64502200  0.17806500  0.86843500  1
  Li  Li3  1  0.34365900  0.88026600  0.78355500  1
  Li  Li4  1  0.41434300  0.45147600  0.72334700  1
  Li  Li5  1  0.35497800  0.82193500  0.13156500  1
  Li  Li6  1  0.65634100  0.11973400  0.21644500  1
  Li  Li7  1  0.58565700  0.54852400  0.27665300  1
  Li  Li8  1  0.86138000  0.34214700  0.37319700  1
  Li  Li9  1  0.13862000  0.65785300  0.62680300  1
  Cr  Cr10  1  0.94994200  0.33115800  0.76933500  1
  Cr  Cr11  1  0.59821700  0.76777700  0.64255900  1
  Cr  Cr12  1  0.40178300  0.23222300  0.35744100  1
  Cr  Cr13  1  0.05005800  0.66884200  0.23066500  1
  P  P14  1  0.65322300  0.28085700  0.58150100  1
  P  P15  1  0.17526100  0.16775600  0.58227800  1
  P  P16  1  0.89684900  0.83110300  0.72811700  1
  P  P17  1  0.59881200  0.77611800  0.98500700  1
  P  P18  1  0.80142000  0.48211300  0.04795000  1
  P  P19  1  0.40118800  0.22388200  0.01499300  1
  P  P20  1  0.10315100  0.16889700  0.27188300  1
  P  P21  1  0.19858000  0.51788700  0.95205000  1
  P  P22  1  0.34677700  0.71914300  0.41849900  1
  P  P23  1  0.82473900  0.83224400  0.41772200  1
  O  O24  1  0.47913900  0.27079100  0.89124800  1
  O  O25  1  0.68222700  0.58055800  0.96461700  1
  O  O26  1  0.09507400  0.33958500  0.92223600  1
  O  O27  1  0.31389200  0.02815100  0.98433300  1
  O  O28  1  0.68610800  0.97184900  0.01566700  1
  O  O29  1  0.90492600  0.66041500  0.07776400  1
  O  O30  1  0.31777300  0.41944200  0.03538300  1
  O  O31  1  0.16560300  0.67695400  0.06779500  1
  O  O32  1  0.52086100  0.72920900  0.10875200  1
  O  O33  1  0.75470000  0.38543900  0.18145500  1
  O  O34  1  0.47966800  0.22080200  0.16614000  1
  O  O35  1  0.04593300  0.98284900  0.17510600  1
  O  O36  1  0.81462900  0.01581600  0.31974600  1
  O  O37  1  0.23875900  0.22812000  0.24826400  1
  O  O38  1  0.91476000  0.66724000  0.37154400  1
  O  O39  1  0.02122300  0.35816800  0.25468500  1
  O  O40  1  0.38378300  0.91875700  0.33842400  1
  O  O41  1  0.83439700  0.32304600  0.93220500  1
  O  O42  1  0.59730400  0.25745400  0.41968400  1
  O  O43  1  0.69378500  0.73612300  0.45193200  1
  O  O44  1  0.19923200  0.67798900  0.40311500  1
  O  O45  1  0.10065000  0.07960100  0.43007600  1
  O  O46  1  0.89935000  0.92039900  0.56992400  1
  O  O47  1  0.80076800  0.32201100  0.59688500  1
  O  O48  1  0.30621500  0.26387700  0.54806800  1
  O  O49  1  0.40269600  0.74254600  0.58031600  1
  O  O50  1  0.58671900  0.46037700  0.65226600  1
  O  O51  1  0.61621700  0.08124300  0.66157600  1
  O  O52  1  0.97877700  0.64183200  0.74531500  1
  O  O53  1  0.08524000  0.33276000  0.62845600  1
  O  O54  1  0.76124100  0.77188000  0.75173600  1
  O  O55  1  0.18537100  0.98418400  0.68025400  1
  O  O56  1  0.95406700  0.01715100  0.82489400  1
  O  O57  1  0.52033200  0.77919800  0.83386000  1
  O  O58  1  0.24530000  0.61456100  0.81854500  1
  O  O59  1  0.41328100  0.53962300  0.34773400  1
