# generated using pymatgen
data_Li14Mn22Cr3Cu3O56
_symmetry_space_group_name_H-M   'P 1'
_cell_length_a   5.92424785
_cell_length_b   5.92424770
_cell_length_c   41.41459968
_cell_angle_alpha   59.69909170
_cell_angle_beta   59.69909215
_cell_angle_gamma   59.96462073
_symmetry_Int_Tables_number   1
_chemical_formula_structural   Li14Mn22Cr3Cu3O56
_chemical_formula_sum   'Li14 Mn22 Cr3 Cu3 O56'
_cell_volume   1022.82043306
_cell_formula_units_Z   1
loop_
 _symmetry_equiv_pos_site_id
 _symmetry_equiv_pos_as_xyz
  1  'x, y, z'
loop_
 _atom_site_type_symbol
 _atom_site_label
 _atom_site_symmetry_multiplicity
 _atom_site_fract_x
 _atom_site_fract_y
 _atom_site_fract_z
 _atom_site_occupancy
  Li  Li0  1  0.12164800  0.12164800  0.01900300  1
  Li  Li1  1  0.12046800  0.12046800  0.16224900  1
  Li  Li2  1  0.12184300  0.12184300  0.30503600  1
  Li  Li3  1  0.87918100  0.87918100  0.12339900  1
  Li  Li4  1  0.11763800  0.11763800  0.44718400  1
  Li  Li5  1  0.87900900  0.87900900  0.26635200  1
  Li  Li6  1  0.12370200  0.12370200  0.58810300  1
  Li  Li7  1  0.87379300  0.87379300  0.41117400  1
  Li  Li8  1  0.12266500  0.12266500  0.73133600  1
  Li  Li9  1  0.12067200  0.12067200  0.87480900  1
  Li  Li10  1  0.88087800  0.88087800  0.55423000  1
  Li  Li11  1  0.87733800  0.87733800  0.69726400  1
  Li  Li12  1  0.87965600  0.87965600  0.83923900  1
  Li  Li13  1  0.88203000  0.88203000  0.98096200  1
  Mn  Mn14  1  0.00194600  0.49731500  0.07161200  1
  Mn  Mn15  1  0.49731500  0.00194600  0.07161200  1
  Mn  Mn16  1  0.49810700  0.49810700  0.07168200  1
  Mn  Mn17  1  0.99789100  0.50145200  0.21400500  1
  Mn  Mn18  1  0.50001500  0.50001500  0.14282800  1
  Mn  Mn19  1  0.50084100  0.50084100  0.21419100  1
  Mn  Mn20  1  0.00125200  0.49770000  0.35755000  1
  Mn  Mn21  1  0.50145200  0.99789100  0.21400500  1
  Mn  Mn22  1  0.49760700  0.49760700  0.35742200  1
  Mn  Mn23  1  0.99953600  0.50006400  0.50002300  1
  Mn  Mn24  1  0.50006400  0.99953600  0.50002300  1
  Mn  Mn25  1  0.49621300  0.49621300  0.42884400  1
  Mn  Mn26  1  0.49770000  0.00125200  0.35755000  1
  Mn  Mn27  1  0.00071600  0.50102700  0.64275100  1
  Mn  Mn28  1  0.50137900  0.50137900  0.57109600  1
  Mn  Mn29  1  0.00001100  0.49959200  0.78572300  1
  Mn  Mn30  1  0.50102700  0.00071600  0.64275100  1
  Mn  Mn31  1  0.50017600  0.50017600  0.71424200  1
  Mn  Mn32  1  0.50143000  0.99845600  0.92832900  1
  Mn  Mn33  1  0.50081300  0.50081300  0.85716500  1
  Mn  Mn34  1  0.49959200  0.00001100  0.78572300  1
  Mn  Mn35  1  0.99845600  0.50143000  0.92832900  1
  Cr  Cr36  1  0.50038300  0.50038300  0.64283800  1
  Cr  Cr37  1  0.49984100  0.49984100  0.78574000  1
  Cr  Cr38  1  0.50140300  0.50140300  0.92845100  1
  Cu  Cu39  1  0.50106100  0.50106100  0.99990900  1
  Cu  Cu40  1  0.49981900  0.49981900  0.28578600  1
  Cu  Cu41  1  0.50021700  0.50021700  0.49976200  1
  O  O42  1  0.25100300  0.25100300  0.04120600  1
  O  O43  1  0.26433500  0.26433500  0.10367500  1
  O  O44  1  0.25591600  0.70827200  0.04084100  1
  O  O45  1  0.70827200  0.25591600  0.04084100  1
  O  O46  1  0.29204900  0.73308800  0.10510600  1
  O  O47  1  0.26570200  0.26570200  0.18013700  1
  O  O48  1  0.73223600  0.73223600  0.04074900  1
  O  O49  1  0.24751800  0.24751800  0.24504100  1
  O  O50  1  0.26154800  0.70735000  0.18055300  1
  O  O51  1  0.73308800  0.29204900  0.10510600  1
  O  O52  1  0.70735000  0.26154800  0.18055300  1
  O  O53  1  0.73393200  0.73393200  0.10548000  1
  O  O54  1  0.25321700  0.25321700  0.32680400  1
  O  O55  1  0.29144900  0.75147000  0.24461700  1
  O  O56  1  0.75548500  0.75548500  0.18209700  1
  O  O57  1  0.75147000  0.29144900  0.24461700  1
  O  O58  1  0.25527500  0.70928200  0.32674800  1
  O  O59  1  0.26550200  0.26550200  0.38917200  1
  O  O60  1  0.70928200  0.25527500  0.32674800  1
  O  O61  1  0.74661200  0.74661200  0.24484000  1
  O  O62  1  0.29076900  0.72968200  0.39147900  1
  O  O63  1  0.25948100  0.25948100  0.46645300  1
  O  O64  1  0.72968200  0.29076900  0.39147900  1
  O  O65  1  0.73145400  0.73145400  0.32638900  1
  O  O66  1  0.25383700  0.70903200  0.46377600  1
  O  O67  1  0.25990800  0.25990800  0.52908400  1
  O  O68  1  0.73132600  0.73132600  0.39170500  1
  O  O69  1  0.70903200  0.25383700  0.46377600  1
  O  O70  1  0.29127400  0.74655000  0.53570100  1
  O  O71  1  0.26943900  0.26943900  0.60611300  1
  O  O72  1  0.74080900  0.74080900  0.47057300  1
  O  O73  1  0.74655000  0.29127400  0.53570100  1
  O  O74  1  0.25968500  0.25968500  0.67232700  1
  O  O75  1  0.26497500  0.70979600  0.60811100  1
  O  O76  1  0.73951400  0.73951400  0.53387700  1
  O  O77  1  0.70979600  0.26497500  0.60811100  1
  O  O78  1  0.29178100  0.73711300  0.67760900  1
  O  O79  1  0.26742700  0.26742700  0.74916800  1
  O  O80  1  0.74118400  0.74118400  0.61320700  1
  O  O81  1  0.73711300  0.29178100  0.67760900  1
  O  O82  1  0.25893700  0.25893700  0.81540800  1
  O  O83  1  0.26344400  0.70833000  0.75097200  1
  O  O84  1  0.73317900  0.73317900  0.67918400  1
  O  O85  1  0.70833000  0.26344400  0.75097200  1
  O  O86  1  0.29126800  0.73581900  0.82049500  1
  O  O87  1  0.26468400  0.26468400  0.89421500  1
  O  O88  1  0.73581900  0.29126800  0.82049500  1
  O  O89  1  0.74047800  0.74047800  0.75621700  1
  O  O90  1  0.26206900  0.70736200  0.89370400  1
  O  O91  1  0.25912900  0.25912900  0.95822800  1
  O  O92  1  0.73267700  0.73267700  0.82226300  1
  O  O93  1  0.70736200  0.26206900  0.89370400  1
  O  O94  1  0.29105500  0.75374700  0.96007100  1
  O  O95  1  0.74251400  0.74251400  0.89812000  1
  O  O96  1  0.75374700  0.29105500  0.96007100  1
  O  O97  1  0.75224900  0.75224900  0.95842300  1
