# generated using pymatgen
data_Li4Ti5VO12
_symmetry_space_group_name_H-M   'P 1'
_cell_length_a   5.12577524
_cell_length_b   5.12577524
_cell_length_c   10.19312257
_cell_angle_alpha   89.89630713
_cell_angle_beta   89.89630713
_cell_angle_gamma   120.58694453
_symmetry_Int_Tables_number   1
_chemical_formula_structural   Li4Ti5VO12
_chemical_formula_sum   'Li4 Ti5 V1 O12'
_cell_volume   230.54461645
_cell_formula_units_Z   1
loop_
 _symmetry_equiv_pos_site_id
 _symmetry_equiv_pos_as_xyz
  1  'x, y, z'
loop_
 _atom_site_type_symbol
 _atom_site_label
 _atom_site_symmetry_multiplicity
 _atom_site_fract_x
 _atom_site_fract_y
 _atom_site_fract_z
 _atom_site_occupancy
  Li  Li0  1  0.33920595  0.85159692  0.75056627  1
  Li  Li1  1  0.14840308  0.66079405  0.24943373  1
  Li  Li2  1  0.85159692  0.33920595  0.75056627  1
  Li  Li3  1  0.66079405  0.14840308  0.24943373  1
  Ti  Ti4  1  0.16051828  0.83948172  0.50000000  1
  Ti  Ti5  1  0.66077129  0.33922871  -0.00000000  1
  Ti  Ti6  1  0.33922871  0.66077129  -0.00000000  1
  Ti  Ti7  1  0.83948172  0.16051828  0.50000000  1
  Ti  Ti8  1  0.50000000  0.50000000  0.50000000  1
  V  V9  1  -0.00000000  0.00000000  -0.00000000  1
  O  O10  1  0.35116283  0.99331807  0.10855333  1
  O  O11  1  0.00668193  0.64883717  0.89144667  1
  O  O12  1  0.49248768  0.84151123  0.39135680  1
  O  O13  1  0.84151123  0.49248768  0.39135680  1
  O  O14  1  0.15848877  0.50751232  0.60864320  1
  O  O15  1  0.83986118  0.83986118  0.60406817  1
  O  O16  1  0.50751232  0.15848877  0.60864320  1
  O  O17  1  0.99331807  0.35116283  0.10855333  1
  O  O18  1  0.65310321  0.65310321  0.10261419  1
  O  O19  1  0.64883717  0.00668193  0.89144667  1
  O  O20  1  0.34689679  0.34689679  0.89738581  1
  O  O21  1  0.16013882  0.16013882  0.39593183  1
