# generated using pymatgen
data_Li13Ni15O28
_symmetry_space_group_name_H-M   'P 1'
_cell_length_a   8.15507815
_cell_length_b   8.76603204
_cell_length_c   7.66995584
_cell_angle_alpha   105.16129867
_cell_angle_beta   105.13737557
_cell_angle_gamma   103.33173654
_symmetry_Int_Tables_number   1
_chemical_formula_structural   Li13Ni15O28
_chemical_formula_sum   'Li13 Ni15 O28'
_cell_volume   483.86039285
_cell_formula_units_Z   1
loop_
 _symmetry_equiv_pos_site_id
 _symmetry_equiv_pos_as_xyz
  1  'x, y, z'
loop_
 _atom_site_type_symbol
 _atom_site_label
 _atom_site_symmetry_multiplicity
 _atom_site_fract_x
 _atom_site_fract_y
 _atom_site_fract_z
 _atom_site_occupancy
  Li  Li0  1  0.28787200  0.21308100  0.92871800  1
  Li  Li1  1  0.06975700  0.42797700  0.85990800  1
  Li  Li2  1  0.43010200  0.06954400  0.64162800  1
  Li  Li3  1  0.85752100  0.64228000  0.78325100  1
  Li  Li4  1  0.99846900  0.50188500  0.50122900  1
  Li  Li5  1  0.64276300  0.85933500  0.71717300  1
  Li  Li6  1  0.35881500  0.14345100  0.28294900  1
  Li  Li7  1  0.50142200  0.00106900  0.99966100  1
  Li  Li8  1  0.14069900  0.35834700  0.21413900  1
  Li  Li9  1  0.78580900  0.71209300  0.42568400  1
  Li  Li10  1  0.57105100  0.92914800  0.35960600  1
  Li  Li11  1  0.92715000  0.57036000  0.14319600  1
  Li  Li12  1  0.71428600  0.78571400  0.07142900  1
  Ni  Ni13  1  0.78345000  0.21130100  0.92520300  1
  Ni  Ni14  1  0.57148700  0.42792700  0.85848900  1
  Ni  Ni15  1  0.92932400  0.06873900  0.63970300  1
  Ni  Ni16  1  0.21428600  0.28571400  0.57142900  1
  Ni  Ni17  1  0.35583900  0.64118900  0.79023700  1
  Ni  Ni18  1  0.71428600  0.28571400  0.57142900  1
  Ni  Ni19  1  0.14325300  0.85783600  0.70943300  1
  Ni  Ni20  1  0.49924700  0.50268900  0.50315400  1
  Ni  Ni21  1  0.85708500  0.14350200  0.28436900  1
  Ni  Ni22  1  0.28531800  0.71359300  0.43342400  1
  Ni  Ni23  1  0.64512200  0.36012800  0.21765500  1
  Ni  Ni24  1  0.99781500  0.99959800  0.99618800  1
  Ni  Ni25  1  0.43075700  0.57183000  0.14666900  1
  Ni  Ni26  1  0.07273300  0.93024000  0.35262000  1
  Ni  Ni27  1  0.21428600  0.78571400  0.07142900  1
  O  O28  1  0.01954200  0.19360200  0.91491400  1
  O  O29  1  0.54990600  0.22983100  0.93665300  1
  O  O30  1  0.68170000  0.08928300  0.64380600  1
  O  O31  1  0.80015900  0.42203500  0.84249700  1
  O  O32  1  0.17684900  0.06407200  0.62024500  1
  O  O33  1  0.33812200  0.42512900  0.86009700  1
  O  O34  1  0.58650300  0.62729500  0.77677200  1
  O  O35  1  0.12570800  0.64948100  0.80714200  1
  O  O36  1  0.23185600  0.98973800  0.98144300  1
  O  O37  1  0.96483900  0.26879800  0.57921900  1
  O  O38  1  0.46373200  0.30263000  0.56363800  1
  O  O39  1  0.25172200  0.50735600  0.52261300  1
  O  O40  1  0.62841300  0.14939400  0.30036000  1
  O  O41  1  0.74687100  0.48214500  0.49905100  1
  O  O42  1  0.09045000  0.14629900  0.28276000  1
  O  O43  1  0.37337600  0.84788200  0.70329900  1
  O  O44  1  0.90888900  0.86634400  0.70199400  1
  O  O45  1  0.51968200  0.70508500  0.44086300  1
  O  O46  1  0.05519500  0.72354700  0.43955800  1
  O  O47  1  0.87866500  0.34159700  0.20620400  1
  O  O48  1  0.76215500  0.00072400  0.99925300  1
  O  O49  1  0.40903000  0.37782700  0.22794300  1
  O  O50  1  0.84206900  0.94413300  0.36608500  1
  O  O51  1  0.19671500  0.58169100  0.16141400  1
  O  O52  1  0.30286300  0.92194700  0.33571600  1
  O  O53  1  0.66641600  0.57070400  0.14360400  1
  O  O54  1  0.45246600  0.76647900  0.06603400  1
  O  O55  1  0.97610500  0.80494900  0.07682300  1
