# generated using pymatgen
data_Li7V3P8O29
_symmetry_space_group_name_H-M   'P 1'
_cell_length_a   9.83233395
_cell_length_b   9.84751338
_cell_length_c   13.89786372
_cell_angle_alpha   90.71932309
_cell_angle_beta   90.74519477
_cell_angle_gamma   60.29706260
_symmetry_Int_Tables_number   1
_chemical_formula_structural   Li7V3P8O29
_chemical_formula_sum   'Li14 V6 P16 O58'
_cell_volume   1168.70970603
_cell_formula_units_Z   2
loop_
 _symmetry_equiv_pos_site_id
 _symmetry_equiv_pos_as_xyz
  1  'x, y, z'
loop_
 _atom_site_type_symbol
 _atom_site_label
 _atom_site_symmetry_multiplicity
 _atom_site_fract_x
 _atom_site_fract_y
 _atom_site_fract_z
 _atom_site_occupancy
  Li  Li0  1  0.90571640  0.32590762  0.56538361  1
  Li  Li1  1  0.66647603  0.68079345  0.38508963  1
  Li  Li2  1  0.67522414  0.67041847  0.88519072  1
  Li  Li3  1  0.76598715  0.32183257  0.06262084  1
  Li  Li4  1  0.32563010  0.90863680  0.06475937  1
  Li  Li5  1  0.67120432  0.23612381  0.43959894  1
  Li  Li6  1  0.32864229  0.76440406  0.56428282  1
  Li  Li7  1  0.65656698  0.10334808  0.93581991  1
  Li  Li8  1  0.23476769  0.66569309  0.93645131  1
  Li  Li9  1  0.33066162  0.32890833  0.61479615  1
  Li  Li10  1  0.09348741  0.67396350  0.43592659  1
  Li  Li11  1  0.10251581  0.23262917  0.93919421  1
  Li  Li12  1  0.97863151  0.96258168  0.00263770  1
  Li  Li13  1  0.99858785  0.99467538  0.50770620  1
  V  V14  1  0.56334595  0.43518453  0.24768006  1
  V  V15  1  0.43413134  0.56525284  0.75181002  1
  V  V16  1  0.56723434  0.99662126  0.74474903  1
  V  V17  1  0.43537696  0.00531853  0.25382207  1
  V  V18  1  0.99742477  0.56524217  0.24661898  1
  V  V19  1  0.00227677  0.43583570  0.75092893  1
  P  P20  1  0.91251991  0.78079351  0.83823208  1
  P  P21  1  0.78308756  0.91531259  0.33901044  1
  P  P22  1  0.90792531  0.31741586  0.34541022  1
  P  P23  1  0.66392215  0.66640502  0.12849396  1
  P  P24  1  0.66428176  0.66488568  0.62585041  1
  P  P25  1  0.77277182  0.31986197  0.84433580  1
  P  P26  1  0.68075544  0.22577820  0.65749386  1
  P  P27  1  0.31867126  0.91277647  0.84765362  1
  P  P28  1  0.68708829  0.08362454  0.15235937  1
  P  P29  1  0.31934739  0.77616190  0.34298746  1
  P  P30  1  0.22470662  0.68747687  0.15825871  1
  P  P31  1  0.33131424  0.33736055  0.37174914  1
  P  P32  1  0.33910279  0.32718317  0.87387592  1
  P  P33  1  0.08941118  0.68382146  0.65084858  1
  P  P34  1  0.22109808  0.08436916  0.65845172  1
  P  P35  1  0.08533152  0.22543238  0.16045049  1
  O  O36  1  0.01201246  0.76670511  0.55868443  1
  O  O37  1  0.92227767  0.74690263  0.34063298  1
  O  O38  1  0.76995258  0.01394401  0.05973598  1
  O  O39  1  0.74616887  0.92420900  0.84092967  1
  O  O40  1  0.89837770  0.63117336  0.83563648  1
  O  O41  1  0.81173159  0.66558579  0.17542725  1
  O  O42  1  0.89532146  0.47963821  0.33284780  1
  O  O43  1  0.99669046  0.22549582  0.07085982  1
  O  O44  1  0.92296570  0.33094915  0.84667141  1
  O  O45  1  0.66211501  0.81254672  0.67462828  1
  O  O46  1  0.63080520  0.90217903  0.33084166  1
  O  O47  1  0.81228750  0.51705813  0.66311477  1
  O  O48  1  0.66404963  0.66897249  0.02115590  1
  O  O49  1  0.66304223  0.67309383  0.51769196  1
  O  O50  1  0.67260237  0.51105248  0.16385417  1
  O  O51  1  0.48272344  0.89513467  0.83330743  1
  O  O52  1  0.51418353  0.81152090  0.17015486  1
  O  O53  1  0.73766361  0.34290428  0.33795945  1
  O  O54  1  0.78563474  0.21608384  0.75036781  1
  O  O55  1  0.77060419  0.22787908  0.56945992  1
  O  O56  1  0.76271000  0.23364050  0.93163282  1
  O  O57  1  0.63133888  0.48474460  0.83265938  1
  O  O58  1  0.51448252  0.66779069  0.66182800  1
  O  O59  1  0.66186442  0.25232300  0.16237846  1
  O  O60  1  0.48162406  0.62761564  0.32868603  1
  O  O61  1  0.34509814  0.91700713  0.34167095  1
  O  O62  1  0.80220193  0.98684694  0.23939073  1
  O  O63  1  0.78934880  0.01381254  0.41968906  1
  O  O64  1  0.21120599  0.98653582  0.57787554  1
  O  O65  1  0.66398800  0.07992144  0.65837252  1
  O  O66  1  0.51722640  0.37153672  0.66669147  1
  O  O67  1  0.33278274  0.75069488  0.84722508  1
  O  O68  1  0.48036753  0.33696635  0.33421517  1
  O  O69  1  0.38306951  0.53331806  0.17194110  1
  O  O70  1  0.22312660  0.77453878  0.06889999  1
  O  O71  1  0.23360409  0.76963043  0.43042597  1
  O  O72  1  0.21014825  0.79402189  0.25045230  1
  O  O73  1  0.25153624  0.67014633  0.66064979  1
  O  O74  1  0.48490428  0.18148098  0.82377615  1
  O  O75  1  0.53357871  0.08127239  0.16667143  1
  O  O76  1  0.33356484  0.47941877  0.83884701  1
  O  O77  1  0.35711819  0.30920377  0.98089210  1
  O  O78  1  0.33288358  0.33659928  0.47912177  1
  O  O79  1  0.18047410  0.48561928  0.33278467  1
  O  O80  1  0.37287438  0.09699337  0.66409803  1
  O  O81  1  0.33334035  0.18955067  0.32515490  1
  O  O82  1  0.08893560  0.65536650  0.16085546  1
  O  O83  1  0.98553726  0.79346311  0.73839771  1
  O  O84  1  0.01199450  0.78965001  0.91880407  1
  O  O85  1  0.10905403  0.51939877  0.66415753  1
  O  O86  1  0.19019872  0.32495661  0.83590513  1
  O  O87  1  0.09336710  0.37690545  0.17220274  1
  O  O88  1  0.24979058  0.07991863  0.16282286  1
  O  O89  1  0.23763543  0.00263706  0.93842493  1
  O  O90  1  0.20901237  0.00893922  0.75879864  1
  O  O91  1  0.07961937  0.25073381  0.65733705  1
  O  O92  1  0.98312489  0.23329467  0.43628818  1
  O  O93  1  0.99635993  0.20980901  0.25342440  1
