# generated using pymatgen
data_Li6V3P8O29
_symmetry_space_group_name_H-M   'P 1'
_cell_length_a   9.83286700
_cell_length_b   9.83603894
_cell_length_c   13.86379600
_cell_angle_alpha   89.99314293
_cell_angle_beta   90.11947412
_cell_angle_gamma   119.97743289
_symmetry_Int_Tables_number   1
_chemical_formula_structural   Li6V3P8O29
_chemical_formula_sum   'Li12 V6 P16 O58'
_cell_volume   1161.47728113
_cell_formula_units_Z   2
loop_
 _symmetry_equiv_pos_site_id
 _symmetry_equiv_pos_as_xyz
  1  'x, y, z'
loop_
 _atom_site_type_symbol
 _atom_site_label
 _atom_site_symmetry_multiplicity
 _atom_site_fract_x
 _atom_site_fract_y
 _atom_site_fract_z
 _atom_site_occupancy
  Li  Li0  1  0.31689900  0.09196100  0.93979300  1
  Li  Li1  1  0.31692100  0.22489500  0.43965800  1
  Li  Li2  1  0.77291600  0.09097200  0.43805400  1
  Li  Li3  1  0.66315600  0.33225200  0.61783000  1
  Li  Li4  1  0.66237800  0.33078600  0.11782600  1
  Li  Li5  1  0.91459200  0.22660100  0.93976500  1
  Li  Li6  1  0.77287700  0.68185800  0.93810400  1
  Li  Li7  1  0.09759400  0.32347800  0.56021800  1
  Li  Li8  1  0.91453500  0.68806500  0.43985200  1
  Li  Li9  1  0.09764900  0.77432200  0.06011900  1
  Li  Li10  1  0.67913100  0.77232500  0.55995600  1
  Li  Li11  1  0.67896100  0.90668600  0.06011800  1
  V  V12  1  0.00227900  0.43390200  0.75198600  1
  V  V13  1  0.00240300  0.56866400  0.25250600  1
  V  V14  1  0.42780200  0.43417200  0.24540000  1
  V  V15  1  0.56420600  0.56695100  0.75144900  1
  V  V16  1  0.42764300  0.99411100  0.74563500  1
  V  V17  1  0.56459000  0.99758500  0.25148600  1
  P  P18  1  0.31814100  0.08853900  0.15662000  1
  P  P19  1  0.31828200  0.22965400  0.65690500  1
  P  P20  1  0.76990800  0.09003500  0.65844600  1
  P  P21  1  0.66518100  0.33129000  0.87373300  1
  P  P22  1  0.66530200  0.33422800  0.37372000  1
  P  P23  1  0.90929300  0.23025900  0.15606100  1
  P  P24  1  0.08615400  0.31672200  0.34157900  1
  P  P25  1  0.76980700  0.67976700  0.15847200  1
  P  P26  1  0.23113700  0.31563000  0.84318900  1
  P  P27  1  0.90952000  0.67941000  0.65607900  1
  P  P28  1  0.08629700  0.76891000  0.84147900  1
  P  P29  1  0.33412000  0.66494100  0.62533500  1
  P  P30  1  0.33421100  0.66971600  0.12511300  1
  P  P31  1  0.23136600  0.91559200  0.34282600  1
  P  P32  1  0.67947900  0.76588200  0.34325600  1
  P  P33  1  0.67962300  0.91366100  0.84312300  1
  O  O34  1  0.23947200  0.00938600  0.42870700  1
  O  O35  1  0.33788500  0.08496700  0.65985700  1
  O  O36  1  0.23927700  0.22989100  0.92871400  1
  O  O37  1  0.33750500  0.25254300  0.15943300  1
  O  O38  1  0.48468500  0.10965300  0.17482000  1
  O  O39  1  0.51417800  0.18374400  0.83380200  1
  O  O40  1  0.62614400  0.11295500  0.67374400  1
  O  O41  1  0.75985500  0.00275700  0.93321300  1
  O  O42  1  0.74297900  0.08092900  0.16011700  1
  O  O43  1  0.51444400  0.33107900  0.33343600  1
  O  O44  1  0.48465900  0.37497600  0.67473600  1
  O  O45  1  0.67123200  0.18605800  0.33551900  1
  O  O46  1  0.66728200  0.33340400  0.98244300  1
  O  O47  1  0.66687500  0.33417700  0.48243300  1
  O  O48  1  0.81448700  0.32720100  0.83514400  1
  O  O49  1  0.62617300  0.51313600  0.17327900  1
  O  O50  1  0.67110200  0.48515300  0.83524700  1
  O  O51  1  0.91938100  0.25485700  0.65826900  1
  O  O52  1  0.99756600  0.20968200  0.24934400  1
  O  O53  1  0.99659800  0.24274600  0.43255400  1
  O  O54  1  0.99331900  0.23904100  0.06571900  1
  O  O55  1  0.88794000  0.37445600  0.17539900  1
  O  O56  1  0.81424600  0.48752000  0.33531900  1
  O  O57  1  0.08512200  0.33643100  0.84158300  1
  O  O58  1  0.88805000  0.51355600  0.67535400  1
  O  O59  1  0.74312900  0.66222300  0.65991600  1
  O  O60  1  0.20696600  0.21374700  0.74569700  1
  O  O61  1  0.24439000  0.24652000  0.56620000  1
  O  O62  1  0.76003600  0.75712000  0.43318900  1
  O  O63  1  0.25016900  0.33450900  0.34201400  1
  O  O64  1  0.09544600  0.47708300  0.32315100  1
  O  O65  1  0.91952800  0.66404000  0.15855400  1
  O  O66  1  0.18623900  0.51404600  0.66653600  1
  O  O67  1  0.09615900  0.61850700  0.82346000  1
  O  O68  1  0.99684400  0.75395400  0.93241100  1
  O  O69  1  0.99378200  0.75429700  0.56566400  1
  O  O70  1  0.99757600  0.78790200  0.74926500  1
  O  O71  1  0.08537600  0.74843100  0.34162200  1
  O  O72  1  0.33532200  0.52163000  0.17172000  1
  O  O73  1  0.38240700  0.47608600  0.82579900  1
  O  O74  1  0.18697600  0.67231800  0.16648000  1
  O  O75  1  0.33750600  0.67045700  0.01806500  1
  O  O76  1  0.33761300  0.66646100  0.51815300  1
  O  O77  1  0.33431000  0.81307600  0.67145900  1
  O  O78  1  0.52178200  0.61741100  0.32611700  1
  O  O79  1  0.48731900  0.67070300  0.66716500  1
  O  O80  1  0.25025800  0.91556800  0.84170400  1
  O  O81  1  0.20675100  0.99290500  0.24560600  1
  O  O82  1  0.24440300  0.99746000  0.06617900  1
  O  O83  1  0.38260300  0.90645500  0.32570600  1
  O  O84  1  0.48780700  0.81670700  0.16684200  1
  O  O85  1  0.52227000  0.90546900  0.82560800  1
  O  O86  1  0.66602400  0.75035700  0.84172900  1
  O  O87  1  0.75687300  0.75727700  0.06829000  1
  O  O88  1  0.79008000  0.78764000  0.25021300  1
  O  O89  1  0.66674100  0.91619200  0.34169300  1
  O  O90  1  0.75662800  0.99939700  0.56822300  1
  O  O91  1  0.79013900  0.00225400  0.75021800  1
