# generated using pymatgen
data_Li7V3P8O29
_symmetry_space_group_name_H-M   'P 1'
_cell_length_a   9.86748727
_cell_length_b   9.89327688
_cell_length_c   13.87253551
_cell_angle_alpha   90.05122243
_cell_angle_beta   90.36465292
_cell_angle_gamma   59.92885943
_symmetry_Int_Tables_number   1
_chemical_formula_structural   Li7V3P8O29
_chemical_formula_sum   'Li14 V6 P16 O58'
_cell_volume   1171.95548922
_cell_formula_units_Z   2
loop_
 _symmetry_equiv_pos_site_id
 _symmetry_equiv_pos_as_xyz
  1  'x, y, z'
loop_
 _atom_site_type_symbol
 _atom_site_label
 _atom_site_symmetry_multiplicity
 _atom_site_fract_x
 _atom_site_fract_y
 _atom_site_fract_z
 _atom_site_occupancy
  Li  Li0  1  0.91041084  0.77571396  0.05944398  1
  Li  Li1  1  0.77059271  0.90332865  0.56344440  1
  Li  Li2  1  0.90251685  0.32417125  0.56111519  1
  Li  Li3  1  0.66341064  0.66787204  0.88093374  1
  Li  Li4  1  0.77541990  0.31424353  0.05997682  1
  Li  Li5  1  0.31520528  0.91074209  0.05986704  1
  Li  Li6  1  0.68454135  0.22514964  0.44039684  1
  Li  Li7  1  0.32332591  0.77335820  0.56369592  1
  Li  Li8  1  0.67653194  0.09668611  0.93622701  1
  Li  Li9  1  0.22944263  0.67391960  0.93639155  1
  Li  Li10  1  0.33652132  0.33105282  0.61920126  1
  Li  Li11  1  0.08959991  0.68699116  0.44044141  1
  Li  Li12  1  0.22450685  0.08972828  0.44008747  1
  Li  Li13  1  0.09728873  0.22662356  0.93899668  1
  V  V14  1  0.56621467  0.43392229  0.24853893  1
  V  V15  1  0.43193054  0.56809784  0.75040021  1
  V  V16  1  0.56806736  0.00002493  0.74955946  1
  V  V17  1  0.43379964  0.00150230  0.25139143  1
  V  V18  1  0.99913411  0.56507391  0.24972972  1
  V  V19  1  0.00000187  0.43278190  0.75001847  1
  P  P20  1  0.91243567  0.76763695  0.84342878  1
  P  P21  1  0.76902632  0.91155186  0.34256273  1
  P  P22  1  0.91162616  0.32013603  0.34099306  1
  P  P23  1  0.66660036  0.66677446  0.12692907  1
  P  P24  1  0.66814544  0.66725812  0.62375629  1
  P  P25  1  0.77013011  0.32061957  0.84315939  1
  P  P26  1  0.67854574  0.23183403  0.65600797  1
  P  P27  1  0.32140680  0.91044342  0.84396264  1
  P  P28  1  0.67887344  0.08818106  0.15804982  1
  P  P29  1  0.32193044  0.76760320  0.34244425  1
  P  P30  1  0.23044807  0.68191565  0.15800072  1
  P  P31  1  0.33352496  0.33290677  0.37360299  1
  P  P32  1  0.33185077  0.33562330  0.87632482  1
  P  P33  1  0.08763427  0.67995854  0.65660162  1
  P  P34  1  0.22977807  0.09072801  0.65689279  1
  P  P35  1  0.08834890  0.23179371  0.15814663  1
  O  O36  1  0.99269076  0.75716622  0.56734882  1
  O  O37  1  0.91694655  0.74888485  0.34136342  1
  O  O38  1  0.75721884  0.99928596  0.06822514  1
  O  O39  1  0.75275298  0.91764300  0.84544397  1
  O  O40  1  0.88904299  0.62481923  0.82790995  1
  O  O41  1  0.81566234  0.67098977  0.16707830  1
  O  O42  1  0.90030642  0.47911836  0.32471203  1
  O  O43  1  0.99910953  0.24165404  0.06780083  1
  O  O44  1  0.92271712  0.32848429  0.84366403  1
  O  O45  1  0.67611514  0.81162572  0.66276172  1
  O  O46  1  0.62155322  0.89908669  0.32363757  1
  O  O47  1  0.81965386  0.51526487  0.67031468  1
  O  O48  1  0.66934654  0.66643878  0.01876543  1
  O  O49  1  0.67948789  0.65416972  0.51664329  1
  O  O50  1  0.67370394  0.51271154  0.16441864  1
  O  O51  1  0.48808953  0.88328648  0.82978283  1
  O  O52  1  0.51516642  0.81396865  0.16569992  1
  O  O53  1  0.74650481  0.33623906  0.33831563  1
  O  O54  1  0.78289625  0.21833510  0.74983756  1
  O  O55  1  0.75858142  0.24739085  0.56773166  1
  O  O56  1  0.75882649  0.23922408  0.93202439  1
  O  O57  1  0.63002586  0.48701155  0.83013151  1
  O  O58  1  0.51824881  0.67130263  0.66354511  1
  O  O59  1  0.66301383  0.25212909  0.15855115  1
  O  O60  1  0.48047923  0.62137155  0.32348378  1
  O  O61  1  0.33658200  0.91659199  0.34130293  1
  O  O62  1  0.78940123  0.00015048  0.25009739  1
  O  O63  1  0.75669693  0.00182511  0.43237597  1
  O  O64  1  0.24088051  0.99825878  0.56789583  1
  O  O65  1  0.67333996  0.07946943  0.65497970  1
  O  O66  1  0.51188821  0.37134832  0.67016565  1
  O  O67  1  0.32655151  0.75288969  0.84500707  1
  O  O68  1  0.48519299  0.32711726  0.33520244  1
  O  O69  1  0.38137741  0.52176017  0.17658620  1
  O  O70  1  0.24390066  0.75785918  0.06791465  1
  O  O71  1  0.24224911  0.75827125  0.43191438  1
  O  O72  1  0.21089200  0.78958726  0.24995962  1
  O  O73  1  0.24730946  0.67030423  0.65453262  1
  O  O74  1  0.48176845  0.18955189  0.83668075  1
  O  O75  1  0.51939975  0.09886303  0.17504814  1
  O  O76  1  0.32397970  0.48777619  0.83726666  1
  O  O77  1  0.32045599  0.33432338  0.98346235  1
  O  O78  1  0.32974799  0.33488925  0.48170360  1
  O  O79  1  0.18479754  0.48515540  0.33286337  1
  O  O80  1  0.36998420  0.11693571  0.66999540  1
  O  O81  1  0.32670247  0.18565074  0.33495587  1
  O  O82  1  0.08426382  0.66419050  0.15844263  1
  O  O83  1  0.00009536  0.78338921  0.75009096  1
  O  O84  1  0.00724618  0.74993302  0.93279389  1
  O  O85  1  0.11094463  0.51384373  0.67218248  1
  O  O86  1  0.18039480  0.33503300  0.82972818  1
  O  O87  1  0.10049720  0.37875053  0.17628168  1
  O  O88  1  0.25141745  0.08306658  0.16035831  1
  O  O89  1  0.24140414  0.00601203  0.93227860  1
  O  O90  1  0.21708447  0.00118117  0.75012145  1
  O  O91  1  0.07723633  0.25118512  0.65643429  1
  O  O92  1  0.99933376  0.24113419  0.43160919  1
  O  O93  1  0.99985144  0.21015241  0.24985727  1
