# generated using pymatgen
data_Li7(NiO2)9
_symmetry_space_group_name_H-M   'P 1'
_cell_length_a   5.76975526
_cell_length_b   6.35008762
_cell_length_c   8.58090001
_cell_angle_alpha   102.80794846
_cell_angle_beta   89.62831454
_cell_angle_gamma   103.81669635
_symmetry_Int_Tables_number   1
_chemical_formula_structural   Li7(NiO2)9
_chemical_formula_sum   'Li7 Ni9 O18'
_cell_volume   297.33929513
_cell_formula_units_Z   1
loop_
 _symmetry_equiv_pos_site_id
 _symmetry_equiv_pos_as_xyz
  1  'x, y, z'
loop_
 _atom_site_type_symbol
 _atom_site_label
 _atom_site_symmetry_multiplicity
 _atom_site_fract_x
 _atom_site_fract_y
 _atom_site_fract_z
 _atom_site_occupancy
  Li  Li0  1  0.65584432  0.65897246  0.10146070  1
  Li  Li1  1  0.00000000  0.00000000  -0.00000000  1
  Li  Li2  1  0.34415568  0.34102754  0.89853930  1
  Li  Li3  1  0.99783468  0.99382914  0.67026479  1
  Li  Li4  1  0.34015851  0.34492104  0.55533278  1
  Li  Li5  1  0.65984149  0.65507896  0.44466722  1
  Li  Li6  1  0.00216532  0.00617086  0.32973521  1
  Ni  Ni7  1  0.83133580  0.32977816  0.22270929  1
  Ni  Ni8  1  0.15984470  0.66585072  0.11238419  1
  Ni  Ni9  1  0.50000000  0.00000000  -0.00000000  1
  Ni  Ni10  1  0.84015530  0.33414928  0.88761581  1
  Ni  Ni11  1  0.16866420  0.67022184  0.77729071  1
  Ni  Ni12  1  0.83583702  0.33335594  0.55924341  1
  Ni  Ni13  1  0.51324207  0.99722302  0.66731860  1
  Ni  Ni14  1  0.16416298  0.66664406  0.44075659  1
  Ni  Ni15  1  0.48675793  0.00277698  0.33268140  1
  O  O16  1  0.93850092  0.66034500  0.27842691  1
  O  O17  1  0.38648651  0.68615082  0.27799496  1
  O  O18  1  0.70558035  0.99948920  0.17085953  1
  O  O19  1  0.60923112  0.31719363  0.03761631  1
  O  O20  1  0.23173667  0.97243854  0.15994961  1
  O  O21  1  0.06719249  0.34989531  0.04536415  1
  O  O22  1  0.39076888  0.68280637  0.96238369  1
  O  O23  1  0.93280751  0.65010469  0.95463585  1
  O  O24  1  0.76826333  0.02756146  0.84005039  1
  O  O25  1  0.29441965  0.00051080  0.82914047  1
  O  O26  1  0.06149908  0.33965500  0.72157309  1
  O  O27  1  0.61351349  0.31384918  0.72200504  1
  O  O28  1  0.39691828  0.68195769  0.59427737  1
  O  O29  1  0.93505076  0.64855525  0.59463580  1
  O  O30  1  0.74313157  0.01830170  0.51081273  1
  O  O31  1  0.25686843  0.98169830  0.48918727  1
  O  O32  1  0.60308172  0.31804231  0.40572263  1
  O  O33  1  0.06494924  0.35144475  0.40536420  1
