# generated using pymatgen
data_Li4MnP2O9
_symmetry_space_group_name_H-M   'P 1'
_cell_length_a   14.60373914
_cell_length_b   14.20988987
_cell_length_c   6.75374398
_cell_angle_alpha   90.00000000
_cell_angle_beta   90.00000000
_cell_angle_gamma   90.00000000
_symmetry_Int_Tables_number   1
_chemical_formula_structural   Li4MnP2O9
_chemical_formula_sum   'Li32 Mn8 P16 O72'
_cell_volume   1401.52023433
_cell_formula_units_Z   8
loop_
 _symmetry_equiv_pos_site_id
 _symmetry_equiv_pos_as_xyz
  1  'x, y, z'
loop_
 _atom_site_type_symbol
 _atom_site_label
 _atom_site_symmetry_multiplicity
 _atom_site_fract_x
 _atom_site_fract_y
 _atom_site_fract_z
 _atom_site_occupancy
  Li  Li0  1  0.00447669  0.00288091  0.77785570  1
  Li  Li1  1  0.00447669  0.49711909  0.27785570  1
  Li  Li2  1  0.02693657  0.24720060  0.24550034  1
  Li  Li3  1  0.02693657  0.25279940  0.74550034  1
  Li  Li4  1  0.12778195  0.63238005  0.00029296  1
  Li  Li5  1  0.12778195  0.86761995  0.50029296  1
  Li  Li6  1  0.22611457  0.02815019  0.18281666  1
  Li  Li7  1  0.22611457  0.47184981  0.68281666  1
  Li  Li8  1  0.27388543  0.52815019  0.18281666  1
  Li  Li9  1  0.27388543  0.97184981  0.68281666  1
  Li  Li10  1  0.37221805  0.13238005  0.00029296  1
  Li  Li11  1  0.37221805  0.36761995  0.50029296  1
  Li  Li12  1  0.47306343  0.74720060  0.24550034  1
  Li  Li13  1  0.47306343  0.75279940  0.74550034  1
  Li  Li14  1  0.49552331  0.50288091  0.77785570  1
  Li  Li15  1  0.49552331  0.99711909  0.27785570  1
  Li  Li16  1  0.50447669  0.00288091  0.72214430  1
  Li  Li17  1  0.50447669  0.49711909  0.22214430  1
  Li  Li18  1  0.52693657  0.24720060  0.25449966  1
  Li  Li19  1  0.52693657  0.25279940  0.75449966  1
  Li  Li20  1  0.62778195  0.63238005  0.49970704  1
  Li  Li21  1  0.62778195  0.86761995  0.99970704  1
  Li  Li22  1  0.72611457  0.02815019  0.31718334  1
  Li  Li23  1  0.72611457  0.47184981  0.81718334  1
  Li  Li24  1  0.77388543  0.52815019  0.31718334  1
  Li  Li25  1  0.77388543  0.97184981  0.81718334  1
  Li  Li26  1  0.87221805  0.13238005  0.49970704  1
  Li  Li27  1  0.87221805  0.36761995  0.99970704  1
  Li  Li28  1  0.97306343  0.74720060  0.25449966  1
  Li  Li29  1  0.97306343  0.75279940  0.75449966  1
  Li  Li30  1  0.99552331  0.50288091  0.72214430  1
  Li  Li31  1  0.99552331  0.99711909  0.22214430  1
  Mn  Mn32  1  0.23457771  0.24846666  0.75165305  1
  Mn  Mn33  1  0.23457771  0.25153334  0.25165305  1
  Mn  Mn34  1  0.26542229  0.74846666  0.75165305  1
  Mn  Mn35  1  0.26542229  0.75153334  0.25165305  1
  Mn  Mn36  1  0.73457771  0.24846666  0.74834695  1
  Mn  Mn37  1  0.73457771  0.25153334  0.24834695  1
  Mn  Mn38  1  0.76542229  0.74846666  0.74834695  1
  Mn  Mn39  1  0.76542229  0.75153334  0.24834695  1
  P  P40  1  0.11416663  0.10403084  0.50059802  1
  P  P41  1  0.11416663  0.39596916  0.00059802  1
  P  P42  1  0.11737933  0.64032266  0.50280009  1
  P  P43  1  0.11737933  0.85967734  0.00280009  1
  P  P44  1  0.38262067  0.14032266  0.50280009  1
  P  P45  1  0.38262067  0.35967634  0.00280009  1
  P  P46  1  0.38583337  0.60403084  0.50059802  1
  P  P47  1  0.38583337  0.89596916  0.00059802  1
  P  P48  1  0.61416663  0.10403084  0.99940198  1
  P  P49  1  0.61416663  0.39596916  0.49940198  1
  P  P50  1  0.61737933  0.64032266  0.99719991  1
  P  P51  1  0.61737933  0.85967734  0.49719991  1
  P  P52  1  0.88262067  0.14032266  0.99719991  1
  P  P53  1  0.88262067  0.35967634  0.49719991  1
  P  P54  1  0.88583337  0.60403084  0.99940198  1
  P  P55  1  0.88583337  0.89596916  0.49940198  1
  O  O56  1  0.01030197  0.08917538  0.49769718  1
  O  O57  1  0.01030197  0.41082462  0.99769718  1
  O  O58  1  0.04237792  0.78422140  0.00517823  1
  O  O59  1  0.04237792  0.71577860  0.50517823  1
  O  O60  1  0.08312659  0.53820563  0.50770849  1
  O  O61  1  0.08312659  0.96179437  0.00770849  1
  O  O62  1  0.13317305  0.16497833  0.68907015  1
  O  O63  1  0.13317305  0.33502167  0.18907015  1
  O  O64  1  0.13697880  0.16055617  0.30657765  1
  O  O65  1  0.13697880  0.33944383  0.80657765  1
  O  O66  1  0.17093544  0.01245187  0.49868008  1
  O  O67  1  0.17093544  0.48754813  0.99868008  1
  O  O68  1  0.17632965  0.65037049  0.30845030  1
  O  O69  1  0.17632965  0.84962951  0.80845030  1
  O  O70  1  0.17913625  0.64883766  0.69275784  1
  O  O71  1  0.17913625  0.85116234  0.19275784  1
  O  O72  1  0.24427986  0.19955821  0.00299649  1
  O  O73  1  0.24427986  0.30044179  0.50299649  1
  O  O74  1  0.25572014  0.69955821  0.00299649  1
  O  O75  1  0.25572014  0.80044179  0.50299649  1
  O  O76  1  0.32086375  0.14883766  0.69275784  1
  O  O77  1  0.32086375  0.35116234  0.19275784  1
  O  O78  1  0.32367035  0.15037049  0.30845030  1
  O  O79  1  0.32367035  0.34962951  0.80845030  1
  O  O80  1  0.32906456  0.51245187  0.49868008  1
  O  O81  1  0.32906456  0.98754813  0.99868008  1
  O  O82  1  0.36302120  0.66055617  0.30657765  1
  O  O83  1  0.36302120  0.83944383  0.80657765  1
  O  O84  1  0.36682695  0.66497833  0.68907015  1
  O  O85  1  0.36682695  0.83502167  0.18907015  1
  O  O86  1  0.41687341  0.03820563  0.50770849  1
  O  O87  1  0.41687341  0.46179437  0.00770849  1
  O  O88  1  0.45762208  0.21577860  0.50517823  1
  O  O89  1  0.45762208  0.28422140  0.00517823  1
  O  O90  1  0.48969803  0.58917538  0.49769718  1
  O  O91  1  0.48969803  0.91082462  0.99769718  1
  O  O92  1  0.51030197  0.08917538  0.00230282  1
  O  O93  1  0.51030197  0.41082462  0.50230282  1
  O  O94  1  0.54237792  0.71577860  0.99482177  1
  O  O95  1  0.54237792  0.78422140  0.49482177  1
  O  O96  1  0.58312659  0.53820563  0.99229151  1
  O  O97  1  0.58312659  0.96179437  0.49229151  1
  O  O98  1  0.63317305  0.16497833  0.81092985  1
  O  O99  1  0.63317305  0.33502167  0.31092985  1
  O  O100  1  0.63697880  0.16055617  0.19342235  1
  O  O101  1  0.63697880  0.33944383  0.69342235  1
  O  O102  1  0.67093544  0.01245187  0.00131992  1
  O  O103  1  0.67093544  0.48754813  0.50131992  1
  O  O104  1  0.67632965  0.65037049  0.19154970  1
  O  O105  1  0.67632965  0.84962951  0.69154970  1
  O  O106  1  0.67913625  0.64883766  0.80724216  1
  O  O107  1  0.67913625  0.85116234  0.30724216  1
  O  O108  1  0.74427986  0.19955821  0.49700351  1
  O  O109  1  0.74427986  0.30044179  0.99700351  1
  O  O110  1  0.75572014  0.69955821  0.49700351  1
  O  O111  1  0.75572014  0.80044179  0.99700351  1
  O  O112  1  0.82086375  0.14883766  0.80724216  1
  O  O113  1  0.82086375  0.35116234  0.30724216  1
  O  O114  1  0.82367035  0.15037049  0.19154970  1
  O  O115  1  0.82367035  0.34962951  0.69154970  1
  O  O116  1  0.82906456  0.51245187  0.00131992  1
  O  O117  1  0.82906456  0.98754813  0.50131992  1
  O  O118  1  0.86302120  0.66055617  0.19342235  1
  O  O119  1  0.86302120  0.83944383  0.69342235  1
  O  O120  1  0.86682695  0.66497833  0.81092985  1
  O  O121  1  0.86682695  0.83502167  0.31092985  1
  O  O122  1  0.91687341  0.03820563  0.99229151  1
  O  O123  1  0.91687341  0.46179437  0.49229151  1
  O  O124  1  0.95762208  0.21577860  0.99482177  1
  O  O125  1  0.95762208  0.28422140  0.49482177  1
  O  O126  1  0.98969803  0.58917538  0.00230282  1
  O  O127  1  0.98969803  0.91082462  0.50230282  1
