# generated using pymatgen
data_Li6V3P8O29
_symmetry_space_group_name_H-M   'P 1'
_cell_length_a   9.80230917
_cell_length_b   9.79625241
_cell_length_c   13.98197824
_cell_angle_alpha   90.01042916
_cell_angle_beta   90.28571893
_cell_angle_gamma   60.39531147
_symmetry_Int_Tables_number   1
_chemical_formula_structural   Li6V3P8O29
_chemical_formula_sum   'Li12 V6 P16 O58'
_cell_volume   1167.33888651
_cell_formula_units_Z   2
loop_
 _symmetry_equiv_pos_site_id
 _symmetry_equiv_pos_as_xyz
  1  'x, y, z'
loop_
 _atom_site_type_symbol
 _atom_site_label
 _atom_site_symmetry_multiplicity
 _atom_site_fract_x
 _atom_site_fract_y
 _atom_site_fract_z
 _atom_site_occupancy
  Li  Li0  1  0.76074239  0.90650576  0.55819304  1
  Li  Li1  1  0.90055917  0.33724545  0.56176797  1
  Li  Li2  1  0.67253107  0.66610285  0.88869501  1
  Li  Li3  1  0.76820086  0.32318690  0.06197770  1
  Li  Li4  1  0.32466087  0.90820478  0.05880177  1
  Li  Li5  1  0.33147197  0.76391976  0.56281206  1
  Li  Li6  1  0.68149579  0.08827332  0.93937202  1
  Li  Li7  1  0.32248152  0.34509116  0.10951392  1
  Li  Li8  1  0.09700219  0.66576274  0.43804523  1
  Li  Li9  1  0.23477290  0.09878628  0.44097471  1
  Li  Li10  1  0.03809641  0.94077383  0.99644752  1
  Li  Li11  1  0.94493111  0.03958536  0.49334363  1
  V  V12  1  0.56259854  0.43685305  0.25456231  1
  V  V13  1  0.43818281  0.55944836  0.74919300  1
  V  V14  1  0.56285033  0.00018446  0.74945945  1
  V  V15  1  0.43623663  0.00064033  0.24923693  1
  V  V16  1  0.99797537  0.56641683  0.24447799  1
  V  V17  1  0.00168930  0.43589302  0.75458656  1
  P  P18  1  0.91368749  0.78182970  0.84347862  1
  P  P19  1  0.77659091  0.91267671  0.34033874  1
  P  P20  1  0.91762591  0.31139485  0.34278378  1
  P  P21  1  0.66115915  0.66809997  0.12914066  1
  P  P22  1  0.66651392  0.66640974  0.62917006  1
  P  P23  1  0.77398250  0.31622345  0.84393081  1
  P  P24  1  0.69552256  0.22171442  0.65797357  1
  P  P25  1  0.31563294  0.90536784  0.84283142  1
  P  P26  1  0.68533602  0.09242404  0.15675637  1
  P  P27  1  0.31379080  0.77230563  0.34577600  1
  P  P28  1  0.22145743  0.69009610  0.16029266  1
  P  P29  1  0.32905972  0.33591471  0.36905133  1
  P  P30  1  0.33811568  0.32877824  0.87024489  1
  P  P31  1  0.08250086  0.68999478  0.65674328  1
  P  P32  1  0.22393120  0.08896668  0.66049042  1
  P  P33  1  0.08819080  0.21928154  0.15751339  1
  O  O34  1  0.99761172  0.77459288  0.56590509  1
  O  O35  1  0.91794365  0.74394726  0.33528546  1
  O  O36  1  0.76392101  0.01010797  0.06657786  1
  O  O37  1  0.74334064  0.92191223  0.84046090  1
  O  O38  1  0.89955890  0.63014745  0.83325690  1
  O  O39  1  0.80609105  0.66842919  0.17203661  1
  O  O40  1  0.92554825  0.46336998  0.32722546  1
  O  O41  1  0.98973998  0.21527284  0.07741110  1
  O  O42  1  0.91753132  0.34047542  0.83964570  1
  O  O43  1  0.67132459  0.81517839  0.67071695  1
  O  O44  1  0.61861928  0.91510002  0.32965789  1
  O  O45  1  0.81139417  0.51563412  0.67144885  1
  O  O46  1  0.65561948  0.66662106  0.02169432  1
  O  O47  1  0.66720255  0.66929453  0.52231601  1
  O  O48  1  0.65884654  0.51979560  0.16947090  1
  O  O49  1  0.47870742  0.89584454  0.82974399  1
  O  O50  1  0.51039061  0.81889070  0.16738925  1
  O  O51  1  0.74955942  0.34431308  0.33750609  1
  O  O52  1  0.78867460  0.20141736  0.75844371  1
  O  O53  1  0.80586958  0.20560646  0.57892818  1
  O  O54  1  0.76520983  0.23770392  0.93451955  1
  O  O55  1  0.62794931  0.48140835  0.82858365  1
  O  O56  1  0.51269918  0.67431441  0.66902154  1
  O  O57  1  0.66473699  0.25870446  0.16090391  1
  O  O58  1  0.47246437  0.62335647  0.33111207  1
  O  O59  1  0.33149596  0.92000274  0.34155658  1
  O  O60  1  0.79373075  0.00215537  0.24852736  1
  O  O61  1  0.78913791  0.98873269  0.43107356  1
  O  O62  1  0.22748009  0.00082856  0.57055877  1
  O  O63  1  0.66273579  0.08326207  0.65665426  1
  O  O64  1  0.54475561  0.38134078  0.66320010  1
  O  O65  1  0.34478106  0.73734831  0.83495749  1
  O  O66  1  0.47695395  0.33512959  0.32313882  1
  O  O67  1  0.37428824  0.52982623  0.16609199  1
  O  O68  1  0.21117517  0.79582344  0.07998610  1
  O  O69  1  0.23175128  0.76859656  0.43650776  1
  O  O70  1  0.19970327  0.78631049  0.25833918  1
  O  O71  1  0.25111825  0.66213253  0.65830071  1
  O  O72  1  0.48797516  0.17709880  0.83240352  1
  O  O73  1  0.51974207  0.10934114  0.17249979  1
  O  O74  1  0.34706032  0.46905971  0.82312832  1
  O  O75  1  0.34606728  0.32831327  0.97705936  1
  O  O76  1  0.32922843  0.33085444  0.47547698  1
  O  O77  1  0.18583226  0.48940855  0.32878911  1
  O  O78  1  0.37697739  0.09490612  0.67351464  1
  O  O79  1  0.32446303  0.18790247  0.32663232  1
  O  O80  1  0.08387029  0.65458664  0.15911497  1
  O  O81  1  0.99151300  0.80063999  0.74529636  1
  O  O82  1  0.00304516  0.79205576  0.92591136  1
  O  O83  1  0.08052815  0.53473505  0.67198917  1
  O  O84  1  0.18963577  0.33296528  0.82852656  1
  O  O85  1  0.10367131  0.36933988  0.16641523  1
  O  O86  1  0.25738375  0.07795051  0.15583957  1
  O  O87  1  0.23283088  0.98388796  0.93324165  1
  O  O88  1  0.20527484  0.00059218  0.75233618  1
  O  O89  1  0.07962678  0.25509809  0.66111840  1
  O  O90  1  0.99823692  0.22684504  0.43525129  1
  O  O91  1  0.01664331  0.19628042  0.25711881  1
