# generated using pymatgen
data_LiPW4O13
_symmetry_space_group_name_H-M   'P 1'
_cell_length_a   10.17700300
_cell_length_b   10.47855700
_cell_length_c   10.05416400
_cell_angle_alpha   90.00000000
_cell_angle_beta   90.00000000
_cell_angle_gamma   90.00000000
_symmetry_Int_Tables_number   1
_chemical_formula_structural   LiPW4O13
_chemical_formula_sum   'Li4 P4 W16 O52'
_cell_volume   1072.17912578
_cell_formula_units_Z   4
loop_
 _symmetry_equiv_pos_site_id
 _symmetry_equiv_pos_as_xyz
  1  'x, y, z'
loop_
 _atom_site_type_symbol
 _atom_site_label
 _atom_site_symmetry_multiplicity
 _atom_site_fract_x
 _atom_site_fract_y
 _atom_site_fract_z
 _atom_site_occupancy
  Li  Li0  1  0.26036400  0.75000000  0.80199000  1
  Li  Li1  1  0.29683300  0.25000000  0.29828100  1
  Li  Li2  1  0.76036400  0.75000000  0.69801000  1
  Li  Li3  1  0.79683300  0.25000000  0.20171900  1
  P  P4  1  0.25037100  0.75000000  0.07475200  1
  P  P5  1  0.25366400  0.25000000  0.57321400  1
  P  P6  1  0.75037100  0.75000000  0.42524800  1
  P  P7  1  0.75366400  0.25000000  0.92678600  1
  W  W8  1  0.00070700  0.58778200  0.25066100  1
  W  W9  1  0.00070700  0.91221800  0.25066100  1
  W  W10  1  0.24829100  0.07410200  0.03583400  1
  W  W11  1  0.24829100  0.42589800  0.03583400  1
  W  W12  1  0.25217500  0.57363700  0.53535600  1
  W  W13  1  0.25217500  0.92636300  0.53535600  1
  W  W14  1  0.50039000  0.08798400  0.75237600  1
  W  W15  1  0.50039000  0.41201600  0.75237600  1
  W  W16  1  0.50070700  0.58778200  0.24933900  1
  W  W17  1  0.50070700  0.91221800  0.24933900  1
  W  W18  1  0.74829100  0.07410200  0.46416600  1
  W  W19  1  0.74829100  0.42589800  0.46416600  1
  W  W20  1  0.75217500  0.57363700  0.96464400  1
  W  W21  1  0.75217500  0.92636300  0.96464400  1
  W  W22  1  0.00039000  0.08798400  0.74762400  1
  W  W23  1  0.00039000  0.41201600  0.74762400  1
  O  O24  1  0.11555600  0.10365800  0.90011700  1
  O  O25  1  0.11555600  0.39634200  0.90011700  1
  O  O26  1  0.11179200  0.60187800  0.40125900  1
  O  O27  1  0.11179200  0.89812200  0.40125900  1
  O  O28  1  0.12334500  0.75000000  0.16623900  1
  O  O29  1  0.12519200  0.25000000  0.66217000  1
  O  O30  1  0.10876100  0.03656700  0.16327900  1
  O  O31  1  0.10876100  0.46343300  0.16327900  1
  O  O32  1  0.11568100  0.96627300  0.66249000  1
  O  O33  1  0.11568100  0.53372700  0.66249000  1
  O  O34  1  0.25086700  0.63184400  0.98273200  1
  O  O35  1  0.25086700  0.86815600  0.98273200  1
  O  O36  1  0.25077800  0.25000000  0.10600300  1
  O  O37  1  0.25130500  0.75000000  0.60484100  1
  O  O38  1  0.25734200  0.13167500  0.48142200  1
  O  O39  1  0.25734200  0.36832500  0.48142200  1
  O  O40  1  0.38382800  0.03459700  0.16252400  1
  O  O41  1  0.38382800  0.46540300  0.16252400  1
  O  O42  1  0.39062000  0.53580500  0.66193900  1
  O  O43  1  0.39062000  0.96419500  0.66193900  1
  O  O44  1  0.37843600  0.75000000  0.16410400  1
  O  O45  1  0.38049000  0.25000000  0.66554900  1
  O  O46  1  0.39002200  0.10443000  0.89917100  1
  O  O47  1  0.39002200  0.39557000  0.89917100  1
  O  O48  1  0.38790400  0.60588600  0.39870600  1
  O  O49  1  0.38790400  0.89411400  0.39870600  1
  O  O50  1  0.61555600  0.10365800  0.59988300  1
  O  O51  1  0.61555600  0.39634200  0.59988300  1
  O  O52  1  0.61179200  0.60187800  0.09874100  1
  O  O53  1  0.61179200  0.89812200  0.09874100  1
  O  O54  1  0.62334500  0.75000000  0.33376100  1
  O  O55  1  0.62519200  0.25000000  0.83783000  1
  O  O56  1  0.60876100  0.03656700  0.33672100  1
  O  O57  1  0.60876100  0.46343300  0.33672100  1
  O  O58  1  0.61568100  0.96627300  0.83751000  1
  O  O59  1  0.61568100  0.53372700  0.83751000  1
  O  O60  1  0.75086700  0.86815600  0.51726800  1
  O  O61  1  0.75086700  0.63184400  0.51726800  1
  O  O62  1  0.75077800  0.25000000  0.39399700  1
  O  O63  1  0.75130500  0.75000000  0.89515900  1
  O  O64  1  0.75734200  0.13167500  0.01857800  1
  O  O65  1  0.75734200  0.36832500  0.01857800  1
  O  O66  1  0.88382800  0.03459700  0.33747500  1
  O  O67  1  0.88382800  0.46540300  0.33747500  1
  O  O68  1  0.89062000  0.53580500  0.83806100  1
  O  O69  1  0.89062000  0.96419500  0.83806100  1
  O  O70  1  0.87843600  0.75000000  0.33589600  1
  O  O71  1  0.88049000  0.25000000  0.83445100  1
  O  O72  1  0.89002200  0.10443000  0.60082900  1
  O  O73  1  0.89002200  0.39557000  0.60082900  1
  O  O74  1  0.88790400  0.89411400  0.10129400  1
  O  O75  1  0.88790400  0.60588600  0.10129400  1
