# generated using pymatgen
data_Li3Ni5O8
_symmetry_space_group_name_H-M   'P 1'
_cell_length_a   5.83591011
_cell_length_b   5.82234650
_cell_length_c   14.61791797
_cell_angle_alpha   78.75095528
_cell_angle_beta   95.26011524
_cell_angle_gamma   119.72158812
_symmetry_Int_Tables_number   1
_chemical_formula_structural   Li3Ni5O8
_chemical_formula_sum   'Li9 Ni15 O24'
_cell_volume   423.06018132
_cell_formula_units_Z   3
loop_
 _symmetry_equiv_pos_site_id
 _symmetry_equiv_pos_as_xyz
  1  'x, y, z'
loop_
 _atom_site_type_symbol
 _atom_site_label
 _atom_site_symmetry_multiplicity
 _atom_site_fract_x
 _atom_site_fract_y
 _atom_site_fract_z
 _atom_site_occupancy
  Li  Li0  1  0.83160100  0.24886600  0.83340100  1
  Li  Li1  1  0.66680100  0.74937000  0.16630100  1
  Li  Li2  1  0.33389400  0.75273800  0.83382100  1
  Li  Li3  1  0.66702900  0.25141400  0.16622900  1
  Li  Li4  1  0.50260500  0.25121100  0.50061000  1
  Li  Li5  1  0.33350600  0.24785100  0.83391300  1
  Li  Li6  1  0.16610500  0.74971700  0.16632500  1
  Li  Li7  1  0.99925400  0.74647100  0.50001600  1
  Li  Li8  1  0.99943100  0.25218300  0.49982700  1
  Ni  Ni9  1  0.83603100  0.75145500  0.83365800  1
  Ni  Ni10  1  0.83302000  0.49980100  0.33329500  1
  Ni  Ni11  1  0.66658300  0.49796100  0.66675800  1
  Ni  Ni12  1  0.49781400  0.74890400  0.50020000  1
  Ni  Ni13  1  0.83325700  0.99998500  0.33327000  1
  Ni  Ni14  1  0.66661100  0.00181900  0.66650000  1
  Ni  Ni15  1  0.49991900  0.49995400  0.00015100  1
  Ni  Ni16  1  0.33320700  0.49994300  0.33325700  1
  Ni  Ni17  1  0.16528800  0.49832800  0.66883800  1
  Ni  Ni18  1  0.50023500  0.00001000  0.00039200  1
  Ni  Ni19  1  0.33317500  0.99996400  0.33326200  1
  Ni  Ni20  1  0.16842200  0.00230300  0.66382200  1
  Ni  Ni21  1  0.16755500  0.25032200  0.16645400  1
  Ni  Ni22  1  0.00014900  0.49987400  0.00017100  1
  Ni  Ni23  1  0.00003600  0.00009200  0.00017100  1
  O  O24  1  0.82272200  0.87312200  0.58698700  1
  O  O25  1  0.66857100  0.87059200  0.91832900  1
  O  O26  1  0.83277000  0.63048800  0.07288400  1
  O  O27  1  0.82943400  0.37338600  0.59263400  1
  O  O28  1  0.66883100  0.38001900  0.91878300  1
  O  O29  1  0.66240300  0.62823400  0.41471900  1
  O  O30  1  0.51411200  0.62942600  0.74518700  1
  O  O31  1  0.49574500  0.86563600  0.26113900  1
  O  O32  1  0.33359700  0.86690400  0.58544400  1
  O  O33  1  0.16102100  0.87081500  0.91915400  1
  O  O34  1  0.83821000  0.12853400  0.08101000  1
  O  O35  1  0.66275100  0.11957800  0.41434000  1
  O  O36  1  0.50017400  0.12434300  0.74111400  1
  O  O37  1  0.49674300  0.37224400  0.25230600  1
  O  O38  1  0.33215400  0.62193200  0.08087500  1
  O  O39  1  0.33537200  0.38288800  0.58566900  1
  O  O40  1  0.16773200  0.36989600  0.92711800  1
  O  O41  1  0.16986500  0.62754900  0.41483600  1
  O  O42  1  0.99813900  0.63259100  0.74729500  1
  O  O43  1  0.00289500  0.87846200  0.25278100  1
  O  O44  1  0.33217800  0.12821700  0.08125300  1
  O  O45  1  0.17003900  0.13388200  0.40541100  1
  O  O46  1  0.99934800  0.11792300  0.74756300  1
  O  O47  1  0.00366500  0.37279900  0.25252500  1
