# generated using pymatgen
data_Li7Ni13O24
_symmetry_space_group_name_H-M   'P 1'
_cell_length_a   7.60634169
_cell_length_b   8.64763859
_cell_length_c   7.60634180
_cell_angle_alpha   72.92885127
_cell_angle_beta   69.27226846
_cell_angle_gamma   105.94517580
_symmetry_Int_Tables_number   1
_chemical_formula_structural   Li7Ni13O24
_chemical_formula_sum   'Li7 Ni13 O24'
_cell_volume   405.23054863
_cell_formula_units_Z   1
loop_
 _symmetry_equiv_pos_site_id
 _symmetry_equiv_pos_as_xyz
  1  'x, y, z'
loop_
 _atom_site_type_symbol
 _atom_site_label
 _atom_site_symmetry_multiplicity
 _atom_site_fract_x
 _atom_site_fract_y
 _atom_site_fract_z
 _atom_site_occupancy
  Li  Li0  1  0.05029400  0.12500000  0.57470600  1
  Li  Li1  1  0.12389500  0.37782600  0.74606900  1
  Li  Li2  1  0.21055200  0.62500000  0.91444800  1
  Li  Li3  1  0.37500000  0.12500000  0.25000000  1
  Li  Li4  1  0.53944800  0.62500000  0.58555200  1
  Li  Li5  1  0.62610500  0.87217400  0.75393100  1
  Li  Li6  1  0.69970600  0.12500000  0.92529400  1
  Ni  Ni7  1  0.08150000  0.24939200  0.15958900  1
  Ni  Ni8  1  0.16568700  0.49807300  0.33599300  1
  Ni  Ni9  1  0.25094900  0.75562300  0.49532700  1
  Ni  Ni10  1  0.49905100  0.49437700  0.00467300  1
  Ni  Ni11  1  0.99965300  0.99554800  0.00410500  1
  Ni  Ni12  1  0.58431300  0.75192700  0.16400700  1
  Ni  Ni13  1  0.34101900  0.00060800  0.66789200  1
  Ni  Ni14  1  0.40898100  0.24939200  0.83210800  1
  Ni  Ni15  1  0.87500000  0.62500000  0.25000000  1
  Ni  Ni16  1  0.66850000  0.00060800  0.34041100  1
  Ni  Ni17  1  0.75034700  0.25445200  0.49589500  1
  Ni  Ni18  1  0.83406700  0.49807300  0.66761400  1
  Ni  Ni19  1  0.91593300  0.75192700  0.83238600  1
  O  O20  1  0.05101600  0.65870100  0.39231500  1
  O  O21  1  0.16128100  0.92883000  0.56079900  1
  O  O22  1  0.02756200  0.57816700  0.75981600  1
  O  O23  1  0.17782700  0.06717200  0.11065500  1
  O  O24  1  0.08678700  0.81894400  0.95200400  1
  O  O25  1  0.41201700  0.67183300  0.05060300  1
  O  O26  1  0.26037000  0.32117000  0.26754800  1
  O  O27  1  0.48963000  0.92883000  0.23245200  1
  O  O28  1  0.33798300  0.57816700  0.44939700  1
  O  O29  1  0.44658900  0.82574900  0.62084000  1
  O  O30  1  0.21846400  0.16394200  0.74059700  1
  O  O31  1  0.30341100  0.42425100  0.87916000  1
  O  O32  1  0.69898400  0.59129900  0.10768500  1
  O  O33  1  0.77094900  0.81894400  0.26784300  1
  O  O34  1  0.57217300  0.18282800  0.38934500  1
  O  O35  1  0.66321300  0.43105600  0.54799600  1
  O  O36  1  0.53153600  0.08605800  0.75940300  1
  O  O37  1  0.72243800  0.67183300  0.74018400  1
  O  O38  1  0.58871900  0.32117000  0.93920100  1
  O  O39  1  0.90453800  0.16394200  0.05452200  1
  O  O40  1  0.82543400  0.94302900  0.88240500  1
  O  O41  1  0.97905100  0.43105600  0.23215700  1
  O  O42  1  0.84546200  0.08605800  0.44547800  1
  O  O43  1  0.92456600  0.30697100  0.61759500  1
