# generated using pymatgen
data_Li11Ni13O24
_symmetry_space_group_name_H-M   'P 1'
_cell_length_a   7.62393722
_cell_length_b   8.72257816
_cell_length_c   7.62393664
_cell_angle_alpha   72.55863505
_cell_angle_beta   69.49738528
_cell_angle_gamma   105.55610202
_symmetry_Int_Tables_number   1
_chemical_formula_structural   Li11Ni13O24
_chemical_formula_sum   'Li11 Ni13 O24'
_cell_volume   411.65284894
_cell_formula_units_Z   1
loop_
 _symmetry_equiv_pos_site_id
 _symmetry_equiv_pos_as_xyz
  1  'x, y, z'
loop_
 _atom_site_type_symbol
 _atom_site_label
 _atom_site_symmetry_multiplicity
 _atom_site_fract_x
 _atom_site_fract_y
 _atom_site_fract_z
 _atom_site_occupancy
  Li  Li0  1  0.70814800  0.12500000  0.91685200  1
  Li  Li1  1  0.62491400  0.87236900  0.75254600  1
  Li  Li2  1  0.96235000  0.87701000  0.41440700  1
  Li  Li3  1  0.21030700  0.62500000  0.91469300  1
  Li  Li4  1  0.53969300  0.62500000  0.58530700  1
  Li  Li5  1  0.45858100  0.37299000  0.41466100  1
  Li  Li6  1  0.78765000  0.37299000  0.08559300  1
  Li  Li7  1  0.12508600  0.37763100  0.74745400  1
  Li  Li8  1  0.04185200  0.12500000  0.58314800  1
  Li  Li9  1  0.37500000  0.12500000  0.25000000  1
  Li  Li10  1  0.29141900  0.87701000  0.08533900  1
  Ni  Ni11  1  0.91611000  0.74910300  0.83520500  1
  Ni  Ni12  1  0.83389000  0.50089700  0.66479500  1
  Ni  Ni13  1  0.41269400  0.24835500  0.83387300  1
  Ni  Ni14  1  0.75125600  0.25210700  0.49914900  1
  Ni  Ni15  1  0.66777300  0.00164600  0.33566100  1
  Ni  Ni16  1  0.33730600  0.00164600  0.66612700  1
  Ni  Ni17  1  0.87500000  0.62500000  0.25000000  1
  Ni  Ni18  1  0.58430700  0.74910300  0.16700700  1
  Ni  Ni19  1  0.25126300  0.75232800  0.49893500  1
  Ni  Ni20  1  0.49873700  0.49767200  0.00106500  1
  Ni  Ni21  1  0.16569300  0.50089700  0.33299300  1
  Ni  Ni22  1  0.08222700  0.24835500  0.16433900  1
  Ni  Ni23  1  0.99874400  0.99789300  0.00085100  1
  O  O24  1  0.59241300  0.32232900  0.95003800  1
  O  O25  1  0.92771700  0.31510900  0.61260800  1
  O  O26  1  0.82228300  0.93489100  0.88739200  1
  O  O27  1  0.85954200  0.07728800  0.43903200  1
  O  O28  1  0.51632100  0.07728800  0.78225400  1
  O  O29  1  0.72382800  0.67536500  0.73141700  1
  O  O30  1  0.98323500  0.43612400  0.21801700  1
  O  O31  1  0.65414100  0.43612400  0.54711100  1
  O  O32  1  0.30130400  0.41453800  0.88676600  1
  O  O33  1  0.23367900  0.17271200  0.71774600  1
  O  O34  1  0.89045800  0.17271200  0.06096800  1
  O  O35  1  0.57753300  0.19240200  0.38513100  1
  O  O36  1  0.09585900  0.81387600  0.95288900  1
  O  O37  1  0.76676500  0.81387600  0.28198300  1
  O  O38  1  0.44869600  0.83546200  0.61323400  1
  O  O39  1  0.34321800  0.57463500  0.45153700  1
  O  O40  1  0.02617200  0.57463500  0.76858300  1
  O  O41  1  0.69040700  0.57042100  0.11998600  1
  O  O42  1  0.27236700  0.32232900  0.27008400  1
  O  O43  1  0.15758700  0.92767100  0.54996200  1
  O  O44  1  0.47763300  0.92767100  0.22991600  1
  O  O45  1  0.17246700  0.05759800  0.11486900  1
  O  O46  1  0.05959300  0.67957900  0.38001400  1
  O  O47  1  0.40678200  0.67536500  0.04846300  1
