# generated using pymatgen
data_Li2VCrP2(HO5)2
_symmetry_space_group_name_H-M   'P 1'
_cell_length_a   5.41996070
_cell_length_b   7.37403791
_cell_length_c   14.30883014
_cell_angle_alpha   86.61053516
_cell_angle_beta   84.80737692
_cell_angle_gamma   106.28750543
_symmetry_Int_Tables_number   1
_chemical_formula_structural   Li2VCrP2(HO5)2
_chemical_formula_sum   'Li6 V3 Cr3 P6 H6 O30'
_cell_volume   544.53629782
_cell_formula_units_Z   3
loop_
 _symmetry_equiv_pos_site_id
 _symmetry_equiv_pos_as_xyz
  1  'x, y, z'
loop_
 _atom_site_type_symbol
 _atom_site_label
 _atom_site_symmetry_multiplicity
 _atom_site_fract_x
 _atom_site_fract_y
 _atom_site_fract_z
 _atom_site_occupancy
  Li  Li0  1  0.14890943  0.57430326  0.24901967  1
  Li  Li1  1  0.18400855  0.75906219  0.41750701  1
  Li  Li2  1  0.48219780  0.90658122  0.91562453  1
  Li  Li3  1  0.51780220  0.09341878  0.08437547  1
  Li  Li4  1  0.81599145  0.24093781  0.58249299  1
  Li  Li5  1  0.85109057  0.42569674  0.75098033  1
  V  V6  1  0.00000000  0.00000000  0.00000000  1
  V  V7  1  0.33282841  0.83301348  0.66646228  1
  V  V8  1  0.66717159  0.16698652  0.33353772  1
  Cr  Cr9  1  0.00000000  0.50000000  0.00000000  1
  Cr  Cr10  1  0.33376117  0.33336482  0.66666201  1
  Cr  Cr11  1  0.66623883  0.66663518  0.33333799  1
  P  P12  1  0.19969064  0.32742822  0.44169089  1
  P  P13  1  0.13469794  0.00614065  0.22590299  1
  P  P14  1  0.53076511  0.65875948  0.10779060  1
  P  P15  1  0.46923489  0.34124052  0.89220940  1
  P  P16  1  0.86530206  0.99385935  0.77409701  1
  P  P17  1  0.80030936  0.67257178  0.55830911  1
  H  H18  1  0.06124431  0.77880218  0.87996312  1
  H  H19  1  0.27222058  0.55057795  0.78644508  1
  H  H20  1  0.60602876  0.88426490  0.45290786  1
  H  H21  1  0.39397124  0.11573510  0.54709214  1
  H  H22  1  0.72777942  0.44942205  0.21355492  1
  H  H23  1  0.93875569  0.22119782  0.12003688  1
  O  O24  1  0.12931334  0.94918727  0.12364068  1
  O  O25  1  0.04271653  0.82417767  0.29616532  1
  O  O26  1  0.03976820  0.86159780  0.75784060  1
  O  O27  1  0.08800319  0.77627802  0.56429509  1
  O  O28  1  0.10107431  0.77622096  0.94620206  1
  O  O29  1  0.24147146  0.55700017  0.10191343  1
  O  O30  1  0.29042919  0.50928379  0.37123091  1
  O  O31  1  0.20663169  0.38512034  0.54395953  1
  O  O32  1  0.22842556  0.55253462  0.72069609  1
  O  O33  1  0.62201683  0.84242322  0.03792142  1
  O  O34  1  0.53747005  0.71689770  0.21017876  1
  O  O35  1  0.56171998  0.88612008  0.38727378  1
  O  O36  1  0.29503394  0.47247470  0.90918452  1
  O  O37  1  0.37355706  0.19514759  0.42470719  1
  O  O38  1  0.57767143  0.88980377  0.76830041  1
  O  O39  1  0.42232857  0.11019623  0.23169959  1
  O  O40  1  0.62644294  0.80485241  0.57529281  1
  O  O41  1  0.70496606  0.52752530  0.09081548  1
  O  O42  1  0.43828002  0.11387992  0.61272622  1
  O  O43  1  0.46252995  0.28310230  0.78982124  1
  O  O44  1  0.37798317  0.15757678  0.96207858  1
  O  O45  1  0.77157444  0.44746538  0.27930391  1
  O  O46  1  0.79336831  0.61487966  0.45604047  1
  O  O47  1  0.70957081  0.49071621  0.62876909  1
  O  O48  1  0.75852754  0.44299983  0.89808657  1
  O  O49  1  0.89892569  0.22377904  0.05379794  1
  O  O50  1  0.91199681  0.22372198  0.43570491  1
  O  O51  1  0.96023180  0.13840220  0.24215940  1
  O  O52  1  0.95728347  0.17582233  0.70383468  1
  O  O53  1  0.87068666  0.05081273  0.87635932  1
