# generated using pymatgen
data_Li9Fe4(SiO5)4
_symmetry_space_group_name_H-M   'P 1'
_cell_length_a   5.01298208
_cell_length_b   5.61780892
_cell_length_c   16.18383545
_cell_angle_alpha   90.28760575
_cell_angle_beta   89.97821764
_cell_angle_gamma   89.63947386
_symmetry_Int_Tables_number   1
_chemical_formula_structural   Li9Fe4(SiO5)4
_chemical_formula_sum   'Li9 Fe4 Si4 O20'
_cell_volume   455.75397353
_cell_formula_units_Z   1
loop_
 _symmetry_equiv_pos_site_id
 _symmetry_equiv_pos_as_xyz
  1  'x, y, z'
loop_
 _atom_site_type_symbol
 _atom_site_label
 _atom_site_symmetry_multiplicity
 _atom_site_fract_x
 _atom_site_fract_y
 _atom_site_fract_z
 _atom_site_occupancy
  Li  Li0  1  0.99376200  0.66178400  0.59854400  1
  Li  Li1  1  0.99815300  0.16579700  0.90886100  1
  Li  Li2  1  0.00114500  0.17134700  0.30086500  1
  Li  Li3  1  0.99726000  0.65873100  0.00214500  1
  Li  Li4  1  0.49846800  0.33711100  0.40291800  1
  Li  Li5  1  0.50242800  0.83071900  0.09196500  1
  Li  Li6  1  0.51008300  0.82499700  0.69614900  1
  Li  Li7  1  0.49732200  0.33865500  0.99733300  1
  Li  Li8  1  0.50175300  0.83565700  0.50614600  1
  Fe  Fe9  1  0.00058500  0.16856300  0.70240000  1
  Fe  Fe10  1  0.00747700  0.66699700  0.80158400  1
  Fe  Fe11  1  0.50256300  0.33333700  0.19921500  1
  Fe  Fe12  1  0.50403800  0.83614900  0.30071400  1
  Si  Si13  1  0.00490800  0.16781100  0.09630400  1
  Si  Si14  1  0.00850200  0.67111900  0.40015700  1
  Si  Si15  1  0.49968200  0.33794500  0.59864600  1
  Si  Si16  1  0.50760600  0.83042100  0.90340500  1
  O  O17  1  0.05835900  0.33644800  0.80118700  1
  O  O18  1  0.10704700  0.84229400  0.70623700  1
  O  O19  1  0.12122800  0.40521100  0.38052600  1
  O  O20  1  0.11040400  0.89478100  0.08082900  1
  O  O21  1  0.10292900  0.32308900  0.01691300  1
  O  O22  1  0.11618400  0.75343500  0.49101000  1
  O  O23  1  0.13280600  0.26065500  0.18510300  1
  O  O24  1  0.13301600  0.85227200  0.32981000  1
  O  O25  1  0.17413800  0.34423300  0.61903300  1
  O  O26  1  0.17555800  0.81622100  0.89503900  1
  O  O27  1  0.55603200  0.66327600  0.20235700  1
  O  O28  1  0.60805500  0.16121500  0.29474900  1
  O  O29  1  0.60915000  0.60951300  0.60147200  1
  O  O30  1  0.60889000  0.10359100  0.91838600  1
  O  O31  1  0.53105500  0.19348500  0.51044200  1
  O  O32  1  0.60580200  0.67411300  0.98271500  1
  O  O33  1  0.63701400  0.16237600  0.66981600  1
  O  O34  1  0.63461500  0.73632200  0.81413900  1
  O  O35  1  0.67321300  0.18213700  0.10535700  1
  O  O36  1  0.67653100  0.68670400  0.39421900  1
