# generated using pymatgen
data_LiMn2F7
_symmetry_space_group_name_H-M   'P 1'
_cell_length_a   4.89962804
_cell_length_b   7.31919770
_cell_length_c   12.67862145
_cell_angle_alpha   84.67563794
_cell_angle_beta   90.00545516
_cell_angle_gamma   90.00540137
_symmetry_Int_Tables_number   1
_chemical_formula_structural   LiMn2F7
_chemical_formula_sum   'Li4 Mn8 F28'
_cell_volume   452.71067030
_cell_formula_units_Z   4
loop_
 _symmetry_equiv_pos_site_id
 _symmetry_equiv_pos_as_xyz
  1  'x, y, z'
loop_
 _atom_site_type_symbol
 _atom_site_label
 _atom_site_symmetry_multiplicity
 _atom_site_fract_x
 _atom_site_fract_y
 _atom_site_fract_z
 _atom_site_occupancy
  Li  Li0  1  0.24668185  0.17217806  0.08458999  1
  Li  Li1  1  0.25328812  0.67215763  0.08458559  1
  Li  Li2  1  0.74671315  0.32783516  0.91543602  1
  Li  Li3  1  0.75330628  0.82781480  0.91542255  1
  Mn  Mn4  1  0.75146888  0.35278525  0.17790329  1
  Mn  Mn5  1  0.74857895  0.85277171  0.17790245  1
  Mn  Mn6  1  0.24349866  0.27965354  0.39099039  1
  Mn  Mn7  1  0.25647848  0.77965074  0.39101506  1
  Mn  Mn8  1  0.74351662  0.22036162  0.60893169  1
  Mn  Mn9  1  0.75650720  0.72035979  0.60896351  1
  Mn  Mn10  1  0.25143020  0.14721186  0.82212715  1
  Mn  Mn11  1  0.24854628  0.64721032  0.82212319  1
  F  F12  1  0.05881466  0.43795209  0.10980600  1
  F  F13  1  0.57549144  0.31552378  0.05013103  1
  F  F14  1  0.91773856  0.10093810  0.17400570  1
  F  F15  1  0.44125502  0.93801699  0.10979032  1
  F  F16  1  0.92457138  0.81546342  0.05009882  1
  F  F17  1  0.58224918  0.60113931  0.17399131  1
  F  F18  1  0.93092476  0.36597804  0.31153770  1
  F  F19  1  0.44758649  0.25391548  0.24852774  1
  F  F20  1  0.56897171  0.86599570  0.31155217  1
  F  F21  1  0.05231180  0.75388733  0.24853317  1
  F  F22  1  0.37087536  0.52899719  0.38773531  1
  F  F23  1  0.12911126  0.02903397  0.38773911  1
  F  F24  1  0.54484335  0.19950743  0.47154627  1
  F  F25  1  0.04485285  0.30054314  0.52837656  1
  F  F26  1  0.95513577  0.69947662  0.47157959  1
  F  F27  1  0.45519590  0.80049430  0.52841169  1
  F  F28  1  0.87088017  0.97097660  0.61222168  1
  F  F29  1  0.62915343  0.47102392  0.61222928  1
  F  F30  1  0.94763074  0.24612692  0.75145854  1
  F  F31  1  0.43099907  0.13403116  0.68841093  1
  F  F32  1  0.55246319  0.74609474  0.75148402  1
  F  F33  1  0.06913152  0.63403895  0.68841629  1
  F  F34  1  0.41778147  0.39883567  0.82604167  1
  F  F35  1  0.07539737  0.18452048  0.94996116  1
  F  F36  1  0.55874078  0.06194808  0.89024793  1
  F  F37  1  0.08222654  0.89906692  0.82601856  1
  F  F38  1  0.42450520  0.68446640  0.94993123  1
  F  F39  1  0.94114633  0.56201675  0.89022532  1
