# generated using pymatgen
data_Li6Cu5F14
_symmetry_space_group_name_H-M   'P 1'
_cell_length_a   7.86123793
_cell_length_b   7.86123735
_cell_length_c   9.86761771
_cell_angle_alpha   90.00000000
_cell_angle_beta   90.00000000
_cell_angle_gamma   92.21553772
_symmetry_Int_Tables_number   1
_chemical_formula_structural   Li6Cu5F14
_chemical_formula_sum   'Li12 Cu10 F28'
_cell_volume   609.35362015
_cell_formula_units_Z   2
loop_
 _symmetry_equiv_pos_site_id
 _symmetry_equiv_pos_as_xyz
  1  'x, y, z'
loop_
 _atom_site_type_symbol
 _atom_site_label
 _atom_site_symmetry_multiplicity
 _atom_site_fract_x
 _atom_site_fract_y
 _atom_site_fract_z
 _atom_site_occupancy
  Li  Li0  1  0.01050279  0.01050279  0.96058785  1
  Li  Li1  1  0.17628726  0.66615800  0.47136661  1
  Li  Li2  1  0.20537311  0.50007481  0.01213870  1
  Li  Li3  1  0.31623236  0.31623236  0.44901003  1
  Li  Li4  1  0.33384200  0.82371274  0.97136661  1
  Li  Li5  1  0.49992519  0.79462689  0.51213870  1
  Li  Li6  1  0.50007481  0.20537311  0.01213870  1
  Li  Li7  1  0.66615800  0.17628726  0.47136661  1
  Li  Li8  1  0.68376764  0.68376764  0.94901003  1
  Li  Li9  1  0.79462689  0.49992519  0.51213870  1
  Li  Li10  1  0.82371274  0.33384200  0.97136661  1
  Li  Li11  1  0.98949721  0.98949721  0.46058785  1
  Cu  Cu12  1  0.01471729  0.37284182  0.71172352  1
  Cu  Cu13  1  0.04322412  0.75629346  0.74731070  1
  Cu  Cu14  1  0.24370654  0.95677588  0.24731070  1
  Cu  Cu15  1  0.37284182  0.01471729  0.71172352  1
  Cu  Cu16  1  0.48858062  0.48858062  0.73848867  1
  Cu  Cu17  1  0.51141938  0.51141938  0.23848867  1
  Cu  Cu18  1  0.62715818  0.98528271  0.21172352  1
  Cu  Cu19  1  0.75629346  0.04322412  0.74731070  1
  Cu  Cu20  1  0.95677588  0.24370654  0.24731070  1
  Cu  Cu21  1  0.98528271  0.62715818  0.21172352  1
  F  F22  1  0.00611376  0.57954719  0.59020310  1
  F  F23  1  0.04833517  0.79908237  0.35161947  1
  F  F24  1  0.06171773  0.06171773  0.14041354  1
  F  F25  1  0.13294425  0.54650302  0.83154318  1
  F  F26  1  0.14989024  0.14989024  0.39139362  1
  F  F27  1  0.16842898  0.72176239  0.08924234  1
  F  F28  1  0.20091763  0.95166483  0.85161947  1
  F  F29  1  0.27823761  0.83157102  0.58924234  1
  F  F30  1  0.29021986  0.52588335  0.35922798  1
  F  F31  1  0.32474262  0.32474262  0.64912609  1
  F  F32  1  0.42045281  0.99388624  0.09020310  1
  F  F33  1  0.40748096  0.40748096  0.06634603  1
  F  F34  1  0.45349698  0.86705575  0.33154318  1
  F  F35  1  0.47411665  0.70978014  0.85922798  1
  F  F36  1  0.52588335  0.29021986  0.35922798  1
  F  F37  1  0.54650302  0.13294425  0.83154318  1
  F  F38  1  0.59251904  0.59251904  0.56634603  1
  F  F39  1  0.57954719  0.00611376  0.59020310  1
  F  F40  1  0.67525738  0.67525738  0.14912609  1
  F  F41  1  0.70978014  0.47411665  0.85922798  1
  F  F42  1  0.72176239  0.16842898  0.08924234  1
  F  F43  1  0.79908237  0.04833517  0.35161947  1
  F  F44  1  0.83157102  0.27823761  0.58924234  1
  F  F45  1  0.85010976  0.85010976  0.89139362  1
  F  F46  1  0.86705575  0.45349698  0.33154318  1
  F  F47  1  0.93828227  0.93828227  0.64041354  1
  F  F48  1  0.95166483  0.20091763  0.85161947  1
  F  F49  1  0.99388624  0.42045281  0.09020310  1
