# generated using pymatgen
data_Li7V3P8O29
_symmetry_space_group_name_H-M   'P 1'
_cell_length_a   9.89927620
_cell_length_b   9.86232888
_cell_length_c   13.94855917
_cell_angle_alpha   89.67018128
_cell_angle_beta   89.87410282
_cell_angle_gamma   59.56552432
_symmetry_Int_Tables_number   1
_chemical_formula_structural   Li7V3P8O29
_chemical_formula_sum   'Li14 V6 P16 O58'
_cell_volume   1174.13352769
_cell_formula_units_Z   2
loop_
 _symmetry_equiv_pos_site_id
 _symmetry_equiv_pos_as_xyz
  1  'x, y, z'
loop_
 _atom_site_type_symbol
 _atom_site_label
 _atom_site_symmetry_multiplicity
 _atom_site_fract_x
 _atom_site_fract_y
 _atom_site_fract_z
 _atom_site_occupancy
  Li  Li0  1  0.90600478  0.75926090  0.06313493  1
  Li  Li1  1  0.76496303  0.89908428  0.56158564  1
  Li  Li2  1  0.90326874  0.32927926  0.56078399  1
  Li  Li3  1  0.67219113  0.66912722  0.88554244  1
  Li  Li4  1  0.76763487  0.32149369  0.06183830  1
  Li  Li5  1  0.32087674  0.90729857  0.05988515  1
  Li  Li6  1  0.67861724  0.22897176  0.43576390  1
  Li  Li7  1  0.33968369  0.76113291  0.55942929  1
  Li  Li8  1  0.32094783  0.34536547  0.61250357  1
  Li  Li9  1  0.34200873  0.34581519  0.11149162  1
  Li  Li10  1  0.23525566  0.08723859  0.43717947  1
  Li  Li11  1  0.09130792  0.23121409  0.93558586  1
  Li  Li12  1  0.98551962  0.96033109  0.99649520  1
  Li  Li13  1  0.01919637  0.93318649  0.49178451  1
  V  V14  1  0.56448838  0.43789412  0.25095925  1
  V  V15  1  0.43355822  0.56516651  0.75466146  1
  V  V16  1  0.56507891  0.00266461  0.75161798  1
  V  V17  1  0.44137663  0.99706950  0.24751969  1
  V  V18  1  0.00371245  0.56317067  0.25360759  1
  V  V19  1  0.99808863  0.43924449  0.74773198  1
  P  P20  1  0.90772784  0.77529196  0.84648693  1
  P  P21  1  0.77344682  0.91127566  0.34374951  1
  P  P22  1  0.91557365  0.31316612  0.34151226  1
  P  P23  1  0.67287247  0.66613063  0.12670854  1
  P  P24  1  0.65836439  0.67051380  0.62747739  1
  P  P25  1  0.77481244  0.31415227  0.84463958  1
  P  P26  1  0.68356538  0.22761053  0.65764774  1
  P  P27  1  0.31852407  0.90965904  0.84185270  1
  P  P28  1  0.69165919  0.08701191  0.15860794  1
  P  P29  1  0.31151984  0.77661163  0.34477294  1
  P  P30  1  0.21705244  0.69501942  0.16005621  1
  P  P31  1  0.33409874  0.32684721  0.37211241  1
  P  P32  1  0.33485703  0.33078751  0.87264653  1
  P  P33  1  0.08888615  0.69273722  0.66114273  1
  P  P34  1  0.22943879  0.09011721  0.65551806  1
  P  P35  1  0.09174111  0.22739405  0.15625969  1
  O  O36  1  0.98888741  0.80060418  0.58135752  1
  O  O37  1  0.91395853  0.74583482  0.33834573  1
  O  O38  1  0.79270199  0.98615702  0.07820214  1
  O  O39  1  0.74529116  0.92116985  0.83383215  1
  O  O40  1  0.89125772  0.62847177  0.83465786  1
  O  O41  1  0.82071589  0.66592221  0.16793449  1
  O  O42  1  0.90408669  0.47320857  0.32705068  1
  O  O43  1  0.99940204  0.23462631  0.06789260  1
  O  O44  1  0.92103321  0.33054165  0.83872519  1
  O  O45  1  0.66069251  0.81827175  0.67075893  1
  O  O46  1  0.61907655  0.91077902  0.33024840  1
  O  O47  1  0.80890739  0.51918719  0.66150557  1
  O  O48  1  0.67113699  0.68216262  0.01906036  1
  O  O49  1  0.63778270  0.68660838  0.52126891  1
  O  O50  1  0.67233435  0.51758960  0.15990434  1
  O  O51  1  0.48278324  0.89269559  0.83021844  1
  O  O52  1  0.52134686  0.81647414  0.16798043  1
  O  O53  1  0.75387867  0.32803928  0.34130840  1
  O  O54  1  0.78395702  0.21161983  0.75180397  1
  O  O55  1  0.77079303  0.23169685  0.56921920  1
  O  O56  1  0.77548955  0.22998700  0.93477646  1
  O  O57  1  0.62681579  0.48083842  0.83210333  1
  O  O58  1  0.51358924  0.66715141  0.67450424  1
  O  O59  1  0.66243134  0.25562061  0.15548455  1
  O  O60  1  0.46586948  0.62234789  0.33412625  1
  O  O61  1  0.33291267  0.92103682  0.33335894  1
  O  O62  1  0.78594506  0.01321758  0.25761519  1
  O  O63  1  0.77557246  0.99372008  0.43539151  1
  O  O64  1  0.24027901  0.99371434  0.56883814  1
  O  O65  1  0.66574527  0.08097923  0.65614635  1
  O  O66  1  0.51933961  0.37654710  0.66793631  1
  O  O67  1  0.33753049  0.74638750  0.84130468  1
  O  O68  1  0.48520129  0.32341877  0.34037444  1
  O  O69  1  0.36722350  0.53186772  0.16626760  1
  O  O70  1  0.20593671  0.80156452  0.07876779  1
  O  O71  1  0.22494568  0.79327903  0.43732254  1
  O  O72  1  0.19791114  0.78861429  0.25870754  1
  O  O73  1  0.25511755  0.67000593  0.65879767  1
  O  O74  1  0.47791518  0.18177180  0.82575027  1
  O  O75  1  0.52761590  0.10159471  0.16829925  1
  O  O76  1  0.34231752  0.47350148  0.82646144  1
  O  O77  1  0.34669484  0.32719383  0.97934845  1
  O  O78  1  0.31949170  0.32168932  0.47915999  1
  O  O79  1  0.18783965  0.47481386  0.32552726  1
  O  O80  1  0.37418336  0.10927293  0.66814635  1
  O  O81  1  0.33128406  0.18074483  0.32763264  1
  O  O82  1  0.07580931  0.66869216  0.15931611  1
  O  O83  1  0.01486684  0.77929949  0.76085297  1
  O  O84  1  0.98399001  0.78069996  0.93829437  1
  O  O85  1  0.10373097  0.52916634  0.66430565  1
  O  O86  1  0.18517653  0.33394000  0.83770464  1
  O  O87  1  0.10627886  0.37536011  0.16841795  1
  O  O88  1  0.25813269  0.08175200  0.15383870  1
  O  O89  1  0.23279057  0.00197722  0.93027356  1
  O  O90  1  0.21396770  0.00296725  0.74972506  1
  O  O91  1  0.08118121  0.25314238  0.65339281  1
  O  O92  1  0.00680532  0.22823337  0.43100368  1
  O  O93  1  0.00721705  0.20568051  0.24900702  1
