# generated using pymatgen
data_Li9V3P8O29
_symmetry_space_group_name_H-M   'P 1'
_cell_length_a   9.95583235
_cell_length_b   9.89118423
_cell_length_c   13.78026864
_cell_angle_alpha   90.18448004
_cell_angle_beta   89.91630157
_cell_angle_gamma   60.15183877
_symmetry_Int_Tables_number   1
_chemical_formula_structural   Li9V3P8O29
_chemical_formula_sum   'Li18 V6 P16 O58'
_cell_volume   1176.98701912
_cell_formula_units_Z   2
loop_
 _symmetry_equiv_pos_site_id
 _symmetry_equiv_pos_as_xyz
  1  'x, y, z'
loop_
 _atom_site_type_symbol
 _atom_site_label
 _atom_site_symmetry_multiplicity
 _atom_site_fract_x
 _atom_site_fract_y
 _atom_site_fract_z
 _atom_site_occupancy
  Li  Li0  1  0.90482838  0.75985753  0.06202648  1
  Li  Li1  1  0.77104861  0.89758899  0.56248930  1
  Li  Li2  1  0.90249891  0.33348845  0.57305332  1
  Li  Li3  1  0.66250990  0.66602194  0.37839715  1
  Li  Li4  1  0.68715017  0.64913391  0.87794290  1
  Li  Li5  1  0.77102664  0.33395380  0.06455106  1
  Li  Li6  1  0.34631800  0.89432787  0.06538411  1
  Li  Li7  1  0.66904325  0.23468655  0.43593048  1
  Li  Li8  1  0.33246408  0.76773818  0.56525613  1
  Li  Li9  1  0.22968699  0.67356002  0.93055093  1
  Li  Li10  1  0.30352616  0.33903836  0.61910457  1
  Li  Li11  1  0.33529139  0.33263520  0.12254211  1
  Li  Li12  1  0.09576106  0.67060453  0.43818070  1
  Li  Li13  1  0.22926462  0.09981928  0.43844563  1
  Li  Li14  1  0.98752070  0.44386867  0.74319440  1
  Li  Li15  1  0.09434375  0.23008399  0.93049749  1
  Li  Li16  1  0.06755430  0.97074916  0.99920256  1
  Li  Li17  1  0.01311881  0.99119165  0.51239839  1
  V  V18  1  0.56520737  0.43584974  0.24910852  1
  V  V19  1  0.43309675  0.56936192  0.74664175  1
  V  V20  1  0.63934851  0.11662481  0.93791596  1
  V  V21  1  0.56633688  0.99299735  0.73885258  1
  V  V22  1  0.43143175  0.00053095  0.25340301  1
  V  V23  1  0.00150956  0.56219200  0.25023953  1
  P  P24  1  0.90989667  0.77608642  0.84755539  1
  P  P25  1  0.77280090  0.90832906  0.34258447  1
  P  P26  1  0.90984387  0.31561465  0.34424093  1
  P  P27  1  0.66744364  0.66759047  0.12277687  1
  P  P28  1  0.66006144  0.66442457  0.61926221  1
  P  P29  1  0.76845639  0.32079757  0.83971578  1
  P  P30  1  0.68001046  0.22816272  0.65271582  1
  P  P31  1  0.32001196  0.90945605  0.84324707  1
  P  P32  1  0.67397202  0.09299717  0.15777262  1
  P  P33  1  0.31484136  0.77340154  0.34576444  1
  P  P34  1  0.22682888  0.68434753  0.15613948  1
  P  P35  1  0.33345792  0.33349998  0.37669551  1
  P  P36  1  0.34939791  0.32744886  0.88126414  1
  P  P37  1  0.08762312  0.68619242  0.65631668  1
  P  P38  1  0.22189709  0.09161683  0.65535572  1
  P  P39  1  0.09072341  0.22238440  0.15406587  1
  O  O40  1  0.99763426  0.78500107  0.56823294  1
  O  O41  1  0.92161995  0.74974978  0.34382842  1
  O  O42  1  0.74654147  0.99839198  0.06360668  1
  O  O43  1  0.74592003  0.93342418  0.84737290  1
  O  O44  1  0.88534703  0.63829311  0.84397371  1
  O  O45  1  0.81350387  0.67136862  0.16131361  1
  O  O46  1  0.89105403  0.47974533  0.33371166  1
  O  O47  1  0.99971103  0.21861134  0.06574818  1
  O  O48  1  0.91761282  0.32063332  0.85268855  1
  O  O49  1  0.67409275  0.80946832  0.65797740  1
  O  O50  1  0.62996104  0.88788713  0.33197348  1
  O  O51  1  0.79836199  0.51540865  0.65522138  1
  O  O52  1  0.66348946  0.66976141  0.01331990  1
  O  O53  1  0.64263828  0.68109493  0.51016262  1
  O  O54  1  0.67323510  0.51528442  0.16110292  1
  O  O55  1  0.47985466  0.89638611  0.83474478  1
  O  O56  1  0.51728423  0.81251479  0.16304786  1
  O  O57  1  0.74946308  0.32923412  0.34210093  1
  O  O58  1  0.78110156  0.21232569  0.74940838  1
  O  O59  1  0.77205517  0.23181561  0.56545764  1
  O  O60  1  0.74231919  0.23782513  0.93085638  1
  O  O61  1  0.62878214  0.48425045  0.82902408  1
  O  O62  1  0.50361981  0.68437926  0.66227229  1
  O  O63  1  0.67430469  0.24712114  0.15304446  1
  O  O64  1  0.47755281  0.63100327  0.33282983  1
  O  O65  1  0.32463975  0.92305297  0.34611736  1
  O  O66  1  0.78615783  0.99256701  0.24384448  1
  O  O67  1  0.76773123  0.00615936  0.42891286  1
  O  O68  1  0.22654764  0.99498982  0.56691353  1
  O  O69  1  0.67138676  0.07786676  0.64985566  1
  O  O70  1  0.51828573  0.37234046  0.66538261  1
  O  O71  1  0.33287194  0.74831193  0.84479503  1
  O  O72  1  0.48324804  0.32745765  0.33534849  1
  O  O73  1  0.37121463  0.52127621  0.16463567  1
  O  O74  1  0.23047846  0.77562288  0.06776137  1
  O  O75  1  0.22570157  0.76913423  0.43413757  1
  O  O76  1  0.21232929  0.78598076  0.25085739  1
  O  O77  1  0.24396083  0.68305737  0.66027677  1
  O  O78  1  0.49070660  0.19356765  0.82207691  1
  O  O79  1  0.50978420  0.12121717  0.17405250  1
  O  O80  1  0.33316263  0.48439427  0.84956527  1
  O  O81  1  0.42823826  0.27801600  0.98622536  1
  O  O82  1  0.33686672  0.33258639  0.48590497  1
  O  O83  1  0.18795709  0.48474024  0.33770355  1
  O  O84  1  0.37019973  0.10576643  0.66458123  1
  O  O85  1  0.32304379  0.18889772  0.33899982  1
  O  O86  1  0.08141879  0.66801675  0.15362397  1
  O  O87  1  0.99157697  0.79145770  0.75126796  1
  O  O88  1  0.00079989  0.78709684  0.93449525  1
  O  O89  1  0.10736478  0.52516771  0.66335795  1
  O  O90  1  0.20204626  0.32227989  0.87550492  1
  O  O91  1  0.11008729  0.36756747  0.16115399  1
  O  O92  1  0.25070282  0.07448824  0.15562160  1
  O  O93  1  0.23041441  0.99814439  0.93442349  1
  O  O94  1  0.21539346  0.99835498  0.75108787  1
  O  O95  1  0.08061651  0.25099284  0.65633342  1
  O  O96  1  0.00074916  0.22571528  0.43258868  1
  O  O97  1  0.99980795  0.21447937  0.24878850  1
