# generated using pymatgen
data_Li9V3P8O29
_symmetry_space_group_name_H-M   'P 1'
_cell_length_a   9.88179412
_cell_length_b   9.91833625
_cell_length_c   13.75962776
_cell_angle_alpha   90.06791061
_cell_angle_beta   90.12144483
_cell_angle_gamma   60.13905555
_symmetry_Int_Tables_number   1
_chemical_formula_structural   Li9V3P8O29
_chemical_formula_sum   'Li18 V6 P16 O58'
_cell_volume   1169.54733056
_cell_formula_units_Z   2
loop_
 _symmetry_equiv_pos_site_id
 _symmetry_equiv_pos_as_xyz
  1  'x, y, z'
loop_
 _atom_site_type_symbol
 _atom_site_label
 _atom_site_symmetry_multiplicity
 _atom_site_fract_x
 _atom_site_fract_y
 _atom_site_fract_z
 _atom_site_occupancy
  Li  Li0  1  0.89928567  0.76977877  0.06812051  1
  Li  Li1  1  0.90720147  0.32577491  0.56221208  1
  Li  Li2  1  0.65465103  0.68350538  0.37375389  1
  Li  Li3  1  0.66695792  0.66411732  0.88336490  1
  Li  Li4  1  0.76288399  0.33817096  0.06425753  1
  Li  Li5  1  0.33509764  0.90324115  0.07365833  1
  Li  Li6  1  0.66479803  0.23606255  0.43400130  1
  Li  Li7  1  0.32631598  0.76853237  0.56080891  1
  Li  Li8  1  0.66945796  0.09808687  0.94031149  1
  Li  Li9  1  0.23353759  0.66860257  0.93959234  1
  Li  Li10  1  0.33210041  0.33619851  0.61808703  1
  Li  Li11  1  0.33484652  0.31026737  0.12341628  1
  Li  Li12  1  0.43289905  0.00089546  0.24886716  1
  Li  Li13  1  0.10465193  0.66417475  0.43125209  1
  Li  Li14  1  0.23873665  0.09900265  0.42343777  1
  Li  Li15  1  0.09608419  0.23375511  0.94008176  1
  Li  Li16  1  0.99819354  0.00604965  0.01155253  1
  Li  Li17  1  0.01512265  0.00847460  0.48570817  1
  V  V18  1  0.74294590  0.88679761  0.55044350  1
  V  V19  1  0.56455676  0.43473157  0.24996767  1
  V  V20  1  0.43213540  0.56500081  0.74905493  1
  V  V21  1  0.56075001  0.00448042  0.75629341  1
  V  V22  1  0.00069267  0.56346843  0.24903022  1
  V  V23  1  0.00085477  0.43268244  0.75165619  1
  P  P24  1  0.90907911  0.77265579  0.84596968  1
  P  P25  1  0.77575245  0.90783277  0.34188415  1
  P  P26  1  0.90997156  0.31600484  0.34375700  1
  P  P27  1  0.66644132  0.66169470  0.12428507  1
  P  P28  1  0.66888573  0.66640558  0.62475045  1
  P  P29  1  0.77214889  0.31576088  0.84331368  1
  P  P30  1  0.68350638  0.22619177  0.65439828  1
  P  P31  1  0.31364021  0.91085663  0.84593738  1
  P  P32  1  0.68115580  0.09219902  0.15439718  1
  P  P33  1  0.31665778  0.77459811  0.34538921  1
  P  P34  1  0.22661727  0.68483251  0.15661648  1
  P  P35  1  0.33146984  0.33874591  0.37672206  1
  P  P36  1  0.33130601  0.33606134  0.87829486  1
  P  P37  1  0.08620584  0.68348779  0.65698411  1
  P  P38  1  0.22683423  0.08819921  0.65486218  1
  P  P39  1  0.08944855  0.22503906  0.15462439  1
  O  O40  1  0.98967178  0.77116365  0.56797491  1
  O  O41  1  0.92879433  0.75062541  0.34101640  1
  O  O42  1  0.78306326  0.00139491  0.06706540  1
  O  O43  1  0.74946055  0.92159798  0.84694516  1
  O  O44  1  0.88837062  0.62954677  0.83272547  1
  O  O45  1  0.81272852  0.66793859  0.16398243  1
  O  O46  1  0.89284061  0.47760295  0.33812898  1
  O  O47  1  0.98878223  0.23581217  0.06645464  1
  O  O48  1  0.92168009  0.32603946  0.84351300  1
  O  O49  1  0.67382717  0.80781114  0.67445172  1
  O  O50  1  0.63332126  0.88963423  0.34274188  1
  O  O51  1  0.81097641  0.51202370  0.65938205  1
  O  O52  1  0.68543212  0.63162898  0.01544491  1
  O  O53  1  0.68064731  0.69427979  0.51606520  1
  O  O54  1  0.67145046  0.50950329  0.17182416  1
  O  O55  1  0.47831461  0.89107779  0.83754501  1
  O  O56  1  0.51672996  0.80269910  0.15593538  1
  O  O57  1  0.74593261  0.33192094  0.34522463  1
  O  O58  1  0.78524042  0.21102496  0.74938030  1
  O  O59  1  0.77069688  0.23307288  0.56565635  1
  O  O60  1  0.76532217  0.23013943  0.93260704  1
  O  O61  1  0.62940945  0.47987039  0.82916371  1
  O  O62  1  0.51502443  0.67001634  0.65207294  1
  O  O63  1  0.67434480  0.25243789  0.15862385  1
  O  O64  1  0.47965136  0.62386863  0.33340622  1
  O  O65  1  0.33399273  0.91587284  0.34871223  1
  O  O66  1  0.78367172  0.00072511  0.24909470  1
  O  O67  1  0.78338103  0.00202653  0.43078671  1
  O  O68  1  0.22503583  0.99773696  0.56603798  1
  O  O69  1  0.67250864  0.07569722  0.65242925  1
  O  O70  1  0.51856848  0.36626025  0.66773617  1
  O  O71  1  0.32714040  0.74972057  0.84354814  1
  O  O72  1  0.48437745  0.33518868  0.32925717  1
  O  O73  1  0.37549574  0.52215344  0.16721153  1
  O  O74  1  0.22918844  0.77495930  0.06757937  1
  O  O75  1  0.22776454  0.76507145  0.43412052  1
  O  O76  1  0.21341877  0.78504192  0.25125276  1
  O  O77  1  0.24543138  0.67486483  0.65421482  1
  O  O78  1  0.48482271  0.19109006  0.83965000  1
  O  O79  1  0.52136588  0.11013335  0.15838326  1
  O  O80  1  0.32376527  0.48716573  0.83707588  1
  O  O81  1  0.33035306  0.33947384  0.98758093  1
  O  O82  1  0.34829949  0.35264628  0.48569772  1
  O  O83  1  0.18911134  0.49098354  0.33738682  1
  O  O84  1  0.37358251  0.10502325  0.66395546  1
  O  O85  1  0.32580655  0.19594409  0.34490610  1
  O  O86  1  0.08146299  0.66815704  0.15381899  1
  O  O87  1  0.99773418  0.78603497  0.75067054  1
  O  O88  1  0.00364699  0.76699132  0.93431392  1
  O  O89  1  0.10838747  0.51947117  0.66690561  1
  O  O90  1  0.18872227  0.32459756  0.83831907  1
  O  O91  1  0.10574118  0.37192163  0.16698975  1
  O  O92  1  0.24641788  0.08113083  0.15284582  1
  O  O93  1  0.22151022  0.00343443  0.93361244  1
  O  O94  1  0.21575997  0.99934729  0.74971150  1
  O  O95  1  0.08021886  0.24996872  0.65586103  1
  O  O96  1  0.00189924  0.22027276  0.43240826  1
  O  O97  1  0.99552571  0.21574345  0.24947661  1
