# generated using pymatgen
data_Li5V3P8O29
_symmetry_space_group_name_H-M   'P 1'
_cell_length_a   9.76095743
_cell_length_b   9.78640856
_cell_length_c   14.12276677
_cell_angle_alpha   90.18456732
_cell_angle_beta   90.05871767
_cell_angle_gamma   60.22989633
_symmetry_Int_Tables_number   1
_chemical_formula_structural   Li5V3P8O29
_chemical_formula_sum   'Li10 V6 P16 O58'
_cell_volume   1171.02255096
_cell_formula_units_Z   2
loop_
 _symmetry_equiv_pos_site_id
 _symmetry_equiv_pos_as_xyz
  1  'x, y, z'
loop_
 _atom_site_type_symbol
 _atom_site_label
 _atom_site_symmetry_multiplicity
 _atom_site_fract_x
 _atom_site_fract_y
 _atom_site_fract_z
 _atom_site_occupancy
  Li  Li0  1  0.76641611  0.90510610  0.55637688  1
  Li  Li1  1  0.89273726  0.35421877  0.55940257  1
  Li  Li2  1  0.76396065  0.32906284  0.05983629  1
  Li  Li3  1  0.32990927  0.90537043  0.06355274  1
  Li  Li4  1  0.32281365  0.77181815  0.56267674  1
  Li  Li5  1  0.68973131  0.08064270  0.93911305  1
  Li  Li6  1  0.33086310  0.33919049  0.10461108  1
  Li  Li7  1  0.09946796  0.66851267  0.44042798  1
  Li  Li8  1  0.04263696  0.93679544  0.99746269  1
  Li  Li9  1  0.99187807  0.04936290  0.50146833  1
  V  V10  1  0.56181665  0.43691670  0.25214618  1
  V  V11  1  0.43525571  0.56515886  0.74506475  1
  V  V12  1  0.56257752  0.99903670  0.74879789  1
  V  V13  1  0.43365589  0.00521532  0.25354148  1
  V  V14  1  0.99323158  0.56831855  0.24569411  1
  V  V15  1  0.00081176  0.43290749  0.75890155  1
  P  P16  1  0.91813226  0.77964596  0.83958438  1
  P  P17  1  0.77671639  0.91470750  0.33960140  1
  P  P18  1  0.91356807  0.31336983  0.34538723  1
  P  P19  1  0.66026539  0.66939930  0.12915681  1
  P  P20  1  0.67559148  0.66180179  0.63055109  1
  P  P21  1  0.76993210  0.31601037  0.84466607  1
  P  P22  1  0.69649873  0.22046266  0.66112240  1
  P  P23  1  0.31292977  0.91052529  0.84357793  1
  P  P24  1  0.68651435  0.09048094  0.15551147  1
  P  P25  1  0.31322566  0.77368531  0.34557496  1
  P  P26  1  0.21791716  0.69008349  0.16330963  1
  P  P27  1  0.32746173  0.34097833  0.36621063  1
  P  P28  1  0.33678360  0.33416008  0.86631978  1
  P  P29  1  0.08625021  0.68009038  0.65532456  1
  P  P30  1  0.21347220  0.08868983  0.66367705  1
  P  P31  1  0.08555030  0.22047693  0.16226453  1
  O  O32  1  -0.00017702  0.75867780  0.56514064  1
  O  O33  1  0.92124959  0.74235455  0.33286023  1
  O  O34  1  0.76959698  0.00553833  0.06726161  1
  O  O35  1  0.74449348  0.91608242  0.83648643  1
  O  O36  1  0.92252575  0.61805425  0.83062636  1
  O  O37  1  0.81068489  0.66328978  0.17784539  1
  O  O38  1  0.91880413  0.46792594  0.32556153  1
  O  O39  1  0.98464228  0.22129454  0.08318573  1
  O  O40  1  0.91750668  0.33809283  0.83823471  1
  O  O41  1  0.67775542  0.81206410  0.66606944  1
  O  O42  1  0.62231925  0.90942522  0.32966221  1
  O  O43  1  0.81207904  0.51595685  0.68599919  1
  O  O44  1  0.66751655  0.66565647  0.02429262  1
  O  O45  1  0.71160554  0.63199640  0.52684027  1
  O  O46  1  0.65852914  0.52106866  0.16947544  1
  O  O47  1  0.46998342  0.91158854  0.82678094  1
  O  O48  1  0.51423614  0.82148587  0.16942976  1
  O  O49  1  0.74730508  0.34134061  0.33157588  1
  O  O50  1  0.79062201  0.19693093  0.75962428  1
  O  O51  1  0.80420541  0.20747555  0.58180998  1
  O  O52  1  0.77144339  0.23330106  0.93472451  1
  O  O53  1  0.62072697  0.47277307  0.82751273  1
  O  O54  1  0.51471739  0.67473346  0.65936919  1
  O  O55  1  0.66271722  0.25886413  0.15794351  1
  O  O56  1  0.47081236  0.61982992  0.33175385  1
  O  O57  1  0.33477417  0.91644906  0.33467458  1
  O  O58  1  0.79355468  0.00223190  0.24776881  1
  O  O59  1  0.79268091  0.98669179  0.42973734  1
  O  O60  1  0.19062652  0.99862501  0.58462695  1
  O  O61  1  0.65928744  0.08323404  0.65968815  1
  O  O62  1  0.54203562  0.37969280  0.66881403  1
  O  O63  1  0.34290745  0.74264494  0.82312208  1
  O  O64  1  0.47801143  0.33430014  0.32102075  1
  O  O65  1  0.36971047  0.52689697  0.16681886  1
  O  O66  1  0.20995932  0.79617593  0.08512775  1
  O  O67  1  0.22949357  0.77595619  0.43628535  1
  O  O68  1  0.19624871  0.78138792  0.26159502  1
  O  O69  1  0.25448550  0.65740929  0.65404653  1
  O  O70  1  0.48931690  0.18376958  0.83012039  1
  O  O71  1  0.52082602  0.10620483  0.17000635  1
  O  O72  1  0.32958195  0.47949494  0.81994344  1
  O  O73  1  0.33385608  0.33428073  0.97240988  1
  O  O74  1  0.31599826  0.35838425  0.47056129  1
  O  O75  1  0.18265480  0.48952995  0.31947319  1
  O  O76  1  0.37412840  0.08056600  0.66821069  1
  O  O77  1  0.32927799  0.19051226  0.32443008  1
  O  O78  1  0.07620296  0.65865543  0.16107875  1
  O  O79  1  0.99465215  0.79722544  0.74170284  1
  O  O80  1  0.00391645  0.79526697  0.92159422  1
  O  O81  1  0.08855698  0.52433085  0.67582944  1
  O  O82  1  0.18847857  0.32744391  0.82463030  1
  O  O83  1  0.09502775  0.37649336  0.17108978  1
  O  O84  1  0.25638399  0.08305250  0.15671327  1
  O  O85  1  0.23932352  0.96929043  0.93837835  1
  O  O86  1  0.19188730  0.01932854  0.76352759  1
  O  O87  1  0.07498767  0.26229430  0.66459745  1
  O  O88  1  0.98316768  0.24088256  0.43894778  1
  O  O89  1  0.02108383  0.19660287  0.26230006  1
