# generated using pymatgen
data_Li2Co4OF8
_symmetry_space_group_name_H-M   'P 1'
_cell_length_a   5.30641001
_cell_length_b   9.10239163
_cell_length_c   14.37946253
_cell_angle_alpha   90.05738607
_cell_angle_beta   90.13500210
_cell_angle_gamma   90.38324355
_symmetry_Int_Tables_number   1
_chemical_formula_structural   Li2Co4OF8
_chemical_formula_sum   'Li8 Co16 O4 F32'
_cell_volume   694.52491201
_cell_formula_units_Z   4
loop_
 _symmetry_equiv_pos_site_id
 _symmetry_equiv_pos_as_xyz
  1  'x, y, z'
loop_
 _atom_site_type_symbol
 _atom_site_label
 _atom_site_symmetry_multiplicity
 _atom_site_fract_x
 _atom_site_fract_y
 _atom_site_fract_z
 _atom_site_occupancy
  Li  Li0  1  0.99341969  0.01744941  0.15968814  1
  Li  Li1  1  0.01081630  0.00234503  0.36182639  1
  Li  Li2  1  0.48698767  0.47325684  0.65733540  1
  Li  Li3  1  0.48629876  0.53838830  0.83550317  1
  Li  Li4  1  0.47681708  0.51594285  0.35816132  1
  Li  Li5  1  0.51500914  0.47748966  0.15711716  1
  Li  Li6  1  0.99761605  0.02665468  0.64822076  1
  Li  Li7  1  0.99331339  0.97112159  0.84478063  1
  Co  Co8  1  0.02279957  0.34226623  0.31952611  1
  Co  Co9  1  0.01963850  0.66709152  0.18252894  1
  Co  Co10  1  0.99485072  0.64628182  0.47107009  1
  Co  Co11  1  0.99020242  0.33231035  0.01046041  1
  Co  Co12  1  0.49072660  0.16950186  0.50461979  1
  Co  Co13  1  0.49320757  0.83061882  0.99598550  1
  Co  Co14  1  0.49641933  0.83698314  0.68832737  1
  Co  Co15  1  0.49082602  0.16419857  0.81425523  1
  Co  Co16  1  0.48249219  0.83333999  0.18615901  1
  Co  Co17  1  0.48563277  0.16671060  0.31606480  1
  Co  Co18  1  0.48347127  0.16362521  0.01706482  1
  Co  Co19  1  0.49121967  0.83484027  0.49063302  1
  Co  Co20  1  0.02377689  0.67523814  0.99341293  1
  Co  Co21  1  0.03158163  0.33058846  0.50434311  1
  Co  Co22  1  0.00967266  0.64725970  0.68529280  1
  Co  Co23  1  0.01050085  0.36384066  0.80466865  1
  O  O24  1  0.14984556  0.48189685  0.41668539  1
  O  O25  1  0.20498360  0.17702510  0.41057879  1
  O  O26  1  0.20376590  0.80618736  0.09040392  1
  O  O27  1  0.20819791  0.50656942  0.74741508  1
  F  F28  1  0.13697135  0.15536463  0.76308543  1
  F  F29  1  0.14291134  0.84909263  0.73875526  1
  F  F30  1  0.15414489  0.83118078  0.42432964  1
  F  F31  1  0.14352345  0.16323623  0.07630137  1
  F  F32  1  0.16810536  0.50038624  0.07837223  1
  F  F33  1  0.30207290  0.99984445  0.24829597  1
  F  F34  1  0.31166296  0.31251232  0.91646535  1
  F  F35  1  0.32710700  0.68512861  0.58746032  1
  F  F36  1  0.35424005  0.99015403  0.58640489  1
  F  F37  1  0.35236053  0.00930123  0.91596148  1
  F  F38  1  0.34305925  0.32084894  0.58616068  1
  F  F39  1  0.34463772  0.67275572  0.91796317  1
  F  F40  1  0.35541360  0.34247487  0.24628534  1
  F  F41  1  0.36119436  0.64471311  0.24761421  1
  F  F42  1  0.66240464  0.66250094  0.74582067  1
  F  F43  1  0.65102108  0.34371218  0.75927475  1
  F  F44  1  0.64941661  0.67560823  0.41863157  1
  F  F45  1  0.65891520  0.33140631  0.07555899  1
  F  F46  1  0.64790091  0.00344290  0.41650663  1
  F  F47  1  0.64460790  0.99531680  0.08621681  1
  F  F48  1  0.68021009  0.33259492  0.40769850  1
  F  F49  1  0.69720631  0.66859835  0.08666544  1
  F  F50  1  0.68591067  0.00208129  0.75204940  1
  F  F51  1  0.83495974  0.49735041  0.24027903  1
  F  F52  1  0.79218988  0.17679699  0.91570027  1
  F  F53  1  0.79862140  0.82609650  0.59061638  1
  F  F54  1  0.86660135  0.49090164  0.91838979  1
  F  F55  1  0.84985661  0.51443824  0.58243043  1
  F  F56  1  0.83285570  0.17033248  0.57074982  1
  F  F57  1  0.82968052  0.83261401  0.92776874  1
  F  F58  1  0.84082315  0.15620396  0.26316365  1
  F  F59  1  0.83532677  0.84398663  0.23689206  1
