# generated using pymatgen
data_Li4V3P8O29
_symmetry_space_group_name_H-M   'P 1'
_cell_length_a   9.80016488
_cell_length_b   9.81272716
_cell_length_c   13.96723913
_cell_angle_alpha   90.04357973
_cell_angle_beta   89.81601921
_cell_angle_gamma   59.93348720
_symmetry_Int_Tables_number   1
_chemical_formula_structural   Li4V3P8O29
_chemical_formula_sum   'Li8 V6 P16 O58'
_cell_volume   1162.43579179
_cell_formula_units_Z   2
loop_
 _symmetry_equiv_pos_site_id
 _symmetry_equiv_pos_as_xyz
  1  'x, y, z'
loop_
 _atom_site_type_symbol
 _atom_site_label
 _atom_site_symmetry_multiplicity
 _atom_site_fract_x
 _atom_site_fract_y
 _atom_site_fract_z
 _atom_site_occupancy
  Li  Li0  1  0.77268585  0.90797979  0.55889388  1
  Li  Li1  1  0.90421889  0.32320792  0.55808053  1
  Li  Li2  1  0.76937132  0.31984899  0.06173065  1
  Li  Li3  1  0.32383204  0.90461598  0.06088076  1
  Li  Li4  1  0.31970155  0.76957234  0.56012710  1
  Li  Li5  1  0.22577531  0.67756513  0.94217106  1
  Li  Li6  1  0.22896966  0.09312937  0.43894647  1
  Li  Li7  1  0.09172453  0.23083596  0.93992445  1
  V  V8  1  0.56605179  0.43002888  0.25530060  1
  V  V9  1  0.43431523  0.56506920  0.74918942  1
  V  V10  1  0.57000421  0.00262926  0.75482778  1
  V  V11  1  0.43934613  -0.00093571  0.24819142  1
  V  V12  1  0.99863411  0.57216195  0.24933245  1
  V  V13  1  0.99831408  0.43740362  0.74899968  1
  P  P14  1  0.91512366  0.77049893  0.84354621  1
  P  P15  1  0.77123364  0.91420964  0.34234220  1
  P  P16  1  0.91259419  0.31953553  0.34110244  1
  P  P17  1  0.66765279  0.66212093  0.12812618  1
  P  P18  1  0.66576986  0.66888935  0.62811860  1
  P  P19  1  0.76930486  0.31834225  0.84344210  1
  P  P20  1  0.68517298  0.22971545  0.65870503  1
  P  P21  1  0.31850345  0.91195919  0.84130477  1
  P  P22  1  0.68832177  0.08491265  0.15573702  1
  P  P23  1  0.31725165  0.77181137  0.34295045  1
  P  P24  1  0.23120191  0.68132440  0.15968288  1
  P  P25  1  0.32840357  0.33474268  0.37195543  1
  P  P26  1  0.32947126  0.33515530  0.87236082  1
  P  P27  1  0.08509883  0.68533137  0.65718067  1
  P  P28  1  0.23224172  0.08861562  0.65867940  1
  P  P29  1  0.08812175  0.23188881  0.15769086  1
  O  O30  1  0.99415894  0.76402876  0.56987348  1
  O  O31  1  0.91504221  0.74472093  0.33208775  1
  O  O32  1  0.76658361  0.00057444  0.06828021  1
  O  O33  1  0.74429087  0.91425554  0.83570173  1
  O  O34  1  0.90380306  0.62033366  0.82378404  1
  O  O35  1  0.81505055  0.66274441  0.17423103  1
  O  O36  1  0.90551944  0.47843505  0.32423575  1
  O  O37  1  0.99930773  0.24162482  0.06848754  1
  O  O38  1  0.91768983  0.33862598  0.83593835  1
  O  O39  1  0.66992163  0.81760605  0.66942780  1
  O  O40  1  0.61910832  0.90259399  0.32108180  1
  O  O41  1  0.81470194  0.51545154  0.66915021  1
  O  O42  1  0.66832532  0.65815979  0.02209317  1
  O  O43  1  0.67161415  0.66423922  0.52122699  1
  O  O44  1  0.66970696  0.51093647  0.17051077  1
  O  O45  1  0.47924054  0.90241949  0.82288643  1
  O  O46  1  0.51443178  0.81319210  0.16698816  1
  O  O47  1  0.74457422  0.34224395  0.33673785  1
  O  O48  1  0.78912996  0.20613887  0.75416952  1
  O  O49  1  0.77030591  0.23550217  0.57235522  1
  O  O50  1  0.76361999  0.24742099  0.93599488  1
  O  O51  1  0.61963438  0.47867714  0.82198102  1
  O  O52  1  0.51306803  0.67416831  0.66723537  1
  O  O53  1  0.66049886  0.25718348  0.16343493  1
  O  O54  1  0.47860597  0.61878834  0.32206303  1
  O  O55  1  0.33843383  0.91817762  0.33756975  1
  O  O56  1  0.78955452  0.00637452  0.25315539  1
  O  O57  1  0.76118219  0.99201001  0.43434078  1
  O  O58  1  0.24171686  0.00021202  0.56849239  1
  O  O59  1  0.66229322  0.08268930  0.66181618  1
  O  O60  1  0.52356876  0.37842231  0.67629880  1
  O  O61  1  0.33525745  0.74751104  0.84067452  1
  O  O62  1  0.47866755  0.33543947  0.32693164  1
  O  O63  1  0.38372673  0.52188637  0.17745463  1
  O  O64  1  0.24220144  0.75796095  0.06971601  1
  O  O65  1  0.24591922  0.76123367  0.43385809  1
  O  O66  1  0.20910418  0.79217416  0.25063050  1
  O  O67  1  0.25334988  0.66349904  0.65998127  1
  O  O68  1  0.48029409  0.18479241  0.82651068  1
  O  O69  1  0.52596712  0.09577458  0.17672267  1
  O  O70  1  0.32806800  0.48498077  0.83362748  1
  O  O71  1  0.32761886  0.32986276  0.97904864  1
  O  O72  1  0.32901948  0.33531434  0.47784956  1
  O  O73  1  0.18278699  0.48148643  0.32530303  1
  O  O74  1  0.38375014  0.09492907  0.67740186  1
  O  O75  1  0.32917758  0.18342123  0.33154012  1
  O  O76  1  0.08666081  0.65816125  0.16335722  1
  O  O77  1  0.00108111  0.79187232  0.75066157  1
  O  O78  1  0.00415531  0.76106808  0.93110573  1
  O  O79  1  0.09592673  0.52342429  0.67769653  1
  O  O80  1  0.18377818  0.32807662  0.83046297  1
  O  O81  1  0.09659225  0.38224998  0.17583530  1
  O  O82  1  0.25474396  0.08276925  0.15851363  1
  O  O83  1  0.24206963  0.00142583  0.93189473  1
  O  O84  1  0.20876275  0.00114533  0.75029946  1
  O  O85  1  0.08440860  0.25453504  0.65922227  1
  O  O86  1  0.00003011  0.24096951  0.43058441  1
  O  O87  1  0.00118572  0.20859576  0.24975784  1
