# generated using pymatgen
data_Li13Ni15O28
_symmetry_space_group_name_H-M   'P 1'
_cell_length_a   8.27517646
_cell_length_b   8.64331033
_cell_length_c   7.67450975
_cell_angle_alpha   104.38228632
_cell_angle_beta   74.93982891
_cell_angle_gamma   75.78638329
_symmetry_Int_Tables_number   1
_chemical_formula_structural   Li13Ni15O28
_chemical_formula_sum   'Li13 Ni15 O28'
_cell_volume   484.42065484
_cell_formula_units_Z   1
loop_
 _symmetry_equiv_pos_site_id
 _symmetry_equiv_pos_as_xyz
  1  'x, y, z'
loop_
 _atom_site_type_symbol
 _atom_site_label
 _atom_site_symmetry_multiplicity
 _atom_site_fract_x
 _atom_site_fract_y
 _atom_site_fract_z
 _atom_site_occupancy
  Li  Li0  1  0.92759000  0.42865800  0.85610800  1
  Li  Li1  1  0.78756000  0.28446200  0.56931400  1
  Li  Li2  1  0.64288900  0.64290900  0.78562400  1
  Li  Li3  1  0.21355900  0.21598700  0.92916300  1
  Li  Li4  1  0.07208300  0.06989900  0.64249300  1
  Li  Li5  1  0.49805600  0.00124400  0.00227300  1
  Li  Li6  1  0.49932100  0.50121400  0.50437900  1
  Li  Li7  1  0.93178600  0.92910300  0.35651200  1
  Li  Li8  1  0.35826400  0.85700400  0.71549700  1
  Li  Li9  1  0.35385700  0.35628700  0.21461100  1
  Li  Li10  1  0.78647200  0.78453700  0.06719300  1
  Li  Li11  1  0.21038800  0.71607900  0.43064700  1
  Li  Li12  1  0.07530500  0.56969700  0.14069300  1
  Ni  Ni13  1  0.71270300  0.21413900  0.93041600  1
  Ni  Ni14  1  0.57298000  0.07176800  0.64087700  1
  Ni  Ni15  1  0.85991800  0.35564600  0.21193800  1
  Ni  Ni16  1  0.64285600  0.14289400  0.28570300  1
  Ni  Ni17  1  0.85683700  0.85480400  0.71586500  1
  Ni  Ni18  1  0.42875700  0.43104500  0.85580500  1
  Ni  Ni19  1  0.28489900  0.28559000  0.57356700  1
  Ni  Ni20  1  0.71635900  0.71251200  0.42607800  1
  Ni  Ni21  1  0.14284600  0.14289100  0.28574900  1
  Ni  Ni22  1  0.56936300  0.57310600  0.14526100  1
  Ni  Ni23  1  0.14288300  0.64274900  0.78566400  1
  Ni  Ni24  1  0.00106700  0.00001900  0.99772600  1
  Ni  Ni25  1  0.42582800  0.92988800  0.35944600  1
  Ni  Ni26  1  0.99786900  0.49816900  0.49867400  1
  Ni  Ni27  1  0.28785300  0.78763700  0.07280300  1
  O  O28  1  0.74807700  0.01142300  0.99747400  1
  O  O29  1  0.95436200  0.22514200  0.94751900  1
  O  O30  1  0.81771500  0.06748600  0.66811100  1
  O  O31  1  0.89318900  0.14986000  0.27644700  1
  O  O32  1  0.46722000  0.21907200  0.90433900  1
  O  O33  1  0.88914800  0.65199700  0.78020300  1
  O  O34  1  0.66036900  0.42530200  0.87251900  1
  O  O35  1  0.33144000  0.06060000  0.62375000  1
  O  O36  1  0.95069600  0.69758200  0.42812100  1
  O  O37  1  0.76889100  0.48814200  0.47619300  1
  O  O38  1  0.53699300  0.27538900  0.57380800  1
  O  O39  1  0.19370800  0.43984500  0.85182200  1
  O  O40  1  0.39670100  0.63368300  0.79162400  1
  O  O41  1  0.39255000  0.13576700  0.29494800  1
  O  O42  1  0.61053900  0.34959300  0.19670300  1
  O  O43  1  0.80250500  0.56584600  0.15287100  1
  O  O44  1  0.62591500  0.85929400  0.69853500  1
  O  O45  1  0.03999700  0.29377900  0.55589300  1
  O  O46  1  0.67542600  0.93572200  0.37371400  1
  O  O47  1  0.48321900  0.71997200  0.41902500  1
  O  O48  1  0.22822800  0.51018100  0.51969400  1
  O  O49  1  0.33480100  0.58840200  0.14327800  1
  O  O50  1  0.11022500  0.34297200  0.21879700  1
  O  O51  1  0.09190000  0.84570800  0.71955800  1
  O  O52  1  0.51696200  0.79736400  0.09516800  1
  O  O53  1  0.17532000  0.94275400  0.35268800  1
  O  O54  1  0.05754100  0.77536800  0.05172600  1
  O  O55  1  0.24621300  0.99181600  0.01539500  1
