# generated using pymatgen
data_Li8Mn3V(PO4)6
_symmetry_space_group_name_H-M   'P 1'
_cell_length_a   9.26895060
_cell_length_b   8.50505398
_cell_length_c   8.39469167
_cell_angle_alpha   60.96079937
_cell_angle_beta   63.60306292
_cell_angle_gamma   91.53629607
_symmetry_Int_Tables_number   1
_chemical_formula_structural   Li8Mn3V(PO4)6
_chemical_formula_sum   'Li8 Mn3 V1 P6 O24'
_cell_volume   492.76074508
_cell_formula_units_Z   1
loop_
 _symmetry_equiv_pos_site_id
 _symmetry_equiv_pos_as_xyz
  1  'x, y, z'
loop_
 _atom_site_type_symbol
 _atom_site_label
 _atom_site_symmetry_multiplicity
 _atom_site_fract_x
 _atom_site_fract_y
 _atom_site_fract_z
 _atom_site_occupancy
  Li  Li0  1  0.86442200  0.27084300  0.80339100  1
  Li  Li1  1  0.90047600  0.93901300  0.37328800  1
  Li  Li2  1  0.85000000  0.65775900  0.06921800  1
  Li  Li3  1  0.58815600  0.79847700  0.67842000  1
  Li  Li4  1  0.40931900  0.21351600  0.32872200  1
  Li  Li5  1  0.14599900  0.33436100  0.93329000  1
  Li  Li6  1  0.10046500  0.06314400  0.62879400  1
  Li  Li7  1  0.13605000  0.73371100  0.19096000  1
  Mn  Mn8  1  0.96817600  0.64912400  0.68716300  1
  Mn  Mn9  1  0.43780200  0.15044500  0.71065000  1
  Mn  Mn10  1  0.03377800  0.35074400  0.31182400  1
  V  V11  1  0.55930600  0.85079700  0.29217400  1
  P  P12  1  0.74608800  0.94786200  0.79701600  1
  P  P13  1  0.75309300  0.55385000  0.49989500  1
  P  P14  1  0.75888200  0.24556600  0.19608200  1
  P  P15  1  0.24205700  0.74733300  0.79589100  1
  P  P16  1  0.25052600  0.45890700  0.49213900  1
  P  P17  1  0.25139800  0.04429700  0.21552900  1
  O  O18  1  0.89031100  0.13914500  0.66136700  1
  O  O19  1  0.81601800  0.51245700  0.65935300  1
  O  O20  1  0.80756700  0.83160800  0.69398800  1
  O  O21  1  0.89922200  0.57368400  0.29626400  1
  O  O22  1  0.90031100  0.19892600  0.24825100  1
  O  O23  1  0.71917000  0.75138300  0.42831800  1
  O  O24  1  0.58224700  0.96920600  0.79946900  1
  O  O25  1  0.59455900  0.39523900  0.61766100  1
  O  O26  1  0.81874100  0.45992100  0.01581900  1
  O  O27  1  0.73470100  0.11964800  0.11651900  1
  O  O28  1  0.59010300  0.20231400  0.38757800  1
  O  O29  1  0.72163400  0.84320200  0.02445400  1
  O  O30  1  0.26355900  0.14756200  0.99866700  1
  O  O31  1  0.41429200  0.80814800  0.59339000  1
  O  O32  1  0.25309100  0.87023600  0.87964800  1
  O  O33  1  0.19011600  0.53596800  0.96495800  1
  O  O34  1  0.41260200  0.60985300  0.39816300  1
  O  O35  1  0.41791800  0.01143400  0.20065200  1
  O  O36  1  0.27979600  0.26218100  0.56203000  1
  O  O37  1  0.09551700  0.78890200  0.74355800  1
  O  O38  1  0.10213900  0.43837300  0.69777800  1
  O  O39  1  0.20067800  0.15783600  0.32073300  1
  O  O40  1  0.19674800  0.51295000  0.32843100  1
  O  O41  1  0.10296900  0.85007100  0.35850700  1
