# generated using pymatgen
data_Li6Bi2O7
_symmetry_space_group_name_H-M   'P 1'
_cell_length_a   6.20833561
_cell_length_b   5.53208618
_cell_length_c   10.73025285
_cell_angle_alpha   70.60455996
_cell_angle_beta   90.00000000
_cell_angle_gamma   90.00000000
_symmetry_Int_Tables_number   1
_chemical_formula_structural   Li6Bi2O7
_chemical_formula_sum   'Li12 Bi4 O14'
_cell_volume   347.61657311
_cell_formula_units_Z   2
loop_
 _symmetry_equiv_pos_site_id
 _symmetry_equiv_pos_as_xyz
  1  'x, y, z'
loop_
 _atom_site_type_symbol
 _atom_site_label
 _atom_site_symmetry_multiplicity
 _atom_site_fract_x
 _atom_site_fract_y
 _atom_site_fract_z
 _atom_site_occupancy
  Li  Li0  1  0.78658107  0.18983994  0.14978974  1
  Li  Li1  1  0.24182800  0.22308977  0.13527698  1
  Li  Li2  1  0.49057979  0.84961573  0.11821251  1
  Li  Li3  1  0.74182800  0.77691023  0.36472302  1
  Li  Li4  1  0.28658107  0.81016006  0.35021026  1
  Li  Li5  1  0.99057979  0.15038427  0.38178749  1
  Li  Li6  1  0.00942021  0.84961573  0.61821251  1
  Li  Li7  1  0.71341893  0.18983994  0.64978974  1
  Li  Li8  1  0.25817200  0.22308977  0.63527698  1
  Li  Li9  1  0.50942021  0.15038427  0.88178749  1
  Li  Li10  1  0.75817200  0.77691023  0.86472302  1
  Li  Li11  1  0.21341893  0.81016006  0.85021026  1
  Bi  Bi12  1  0.01352506  0.72807121  0.13368314  1
  Bi  Bi13  1  0.51352506  0.27192879  0.36631686  1
  Bi  Bi14  1  0.48647494  0.72807121  0.63368314  1
  Bi  Bi15  1  0.98647494  0.27192879  0.86631686  1
  O  O16  1  0.00000000  0.50000000  0.00000000  1
  O  O17  1  0.75174218  0.97645879  0.00761280  1
  O  O18  1  0.01951160  0.97292741  0.25396424  1
  O  O19  1  0.51951160  0.02707259  0.24603576  1
  O  O20  1  0.31577396  0.53765202  0.21561986  1
  O  O21  1  0.81577396  0.46234798  0.28438014  1
  O  O22  1  0.25174218  0.02354121  0.49238720  1
  O  O23  1  0.74825782  0.97645879  0.50761280  1
  O  O24  1  0.50000000  0.50000000  0.50000000  1
  O  O25  1  0.18422604  0.53765202  0.71561986  1
  O  O26  1  0.68422604  0.46234798  0.78438014  1
  O  O27  1  0.48048840  0.97292741  0.75396424  1
  O  O28  1  0.98048840  0.02707259  0.74603576  1
  O  O29  1  0.24825782  0.02354121  0.99238720  1
