# generated using pymatgen
data_Li9Mn12Ni3O32
_symmetry_space_group_name_H-M   'P 1'
_cell_length_a   8.26364801
_cell_length_b   8.29583553
_cell_length_c   8.29859973
_cell_angle_alpha   89.88363460
_cell_angle_beta   90.19962129
_cell_angle_gamma   89.80285380
_symmetry_Int_Tables_number   1
_chemical_formula_structural   Li9Mn12Ni3O32
_chemical_formula_sum   'Li9 Mn12 Ni3 O32'
_cell_volume   568.89307588
_cell_formula_units_Z   1
loop_
 _symmetry_equiv_pos_site_id
 _symmetry_equiv_pos_as_xyz
  1  'x, y, z'
loop_
 _atom_site_type_symbol
 _atom_site_label
 _atom_site_symmetry_multiplicity
 _atom_site_fract_x
 _atom_site_fract_y
 _atom_site_fract_z
 _atom_site_occupancy
  Li  Li0  1  0.00291300  0.00187100  0.00743900  1
  Li  Li1  1  0.24530500  0.24911700  0.24547600  1
  Li  Li2  1  0.25269300  0.75275200  0.74521300  1
  Li  Li3  1  0.49721000  0.99534600  0.50274500  1
  Li  Li4  1  0.50477400  0.49545100  0.99917700  1
  Li  Li5  1  0.74705200  0.25734800  0.75176800  1
  Li  Li6  1  0.75547800  0.74598700  0.25232500  1
  Li  Li7  1  0.87499900  0.37584300  0.12586600  1
  Li  Li8  1  0.99459400  0.50232800  0.49606800  1
  Mn  Mn9  1  0.12283400  0.12773300  0.62320200  1
  Mn  Mn10  1  0.12489100  0.38052400  0.87424500  1
  Mn  Mn11  1  0.12656300  0.62336200  0.12182700  1
  Mn  Mn12  1  0.37252900  0.37502100  0.62123900  1
  Mn  Mn13  1  0.37496100  0.62123000  0.37125600  1
  Mn  Mn14  1  0.37744500  0.87128200  0.12516900  1
  Mn  Mn15  1  0.62338400  0.37180200  0.37343800  1
  Mn  Mn16  1  0.62505300  0.12417900  0.13055000  1
  Mn  Mn17  1  0.62721400  0.87325800  0.87763500  1
  Mn  Mn18  1  0.87097900  0.12672800  0.37680100  1
  Mn  Mn19  1  0.87509000  0.87809900  0.62799100  1
  Mn  Mn20  1  0.87909900  0.62684100  0.87661700  1
  Ni  Ni21  1  0.12422500  0.87424500  0.37434400  1
  Ni  Ni22  1  0.37495500  0.12628700  0.87632900  1
  Ni  Ni23  1  0.62575200  0.62437800  0.62429600  1
  O  O24  1  0.10282400  0.12499500  0.39336800  1
  O  O25  1  0.10882000  0.89832000  0.62452500  1
  O  O26  1  0.11608200  0.61378500  0.88441700  1
  O  O27  1  0.12940900  0.39448000  0.09932400  1
  O  O28  1  0.14245600  0.14441500  0.86138100  1
  O  O29  1  0.13595100  0.36273300  0.63571300  1
  O  O30  1  0.14183800  0.62524700  0.35135500  1
  O  O31  1  0.14805900  0.85788700  0.12552400  1
  O  O32  1  0.35509000  0.14124400  0.62900800  1
  O  O33  1  0.36202800  0.37025200  0.85213700  1
  O  O34  1  0.36626000  0.63646900  0.13573300  1
  O  O35  1  0.37519800  0.85212200  0.35700300  1
  O  O36  1  0.37469200  0.60701300  0.60210700  1
  O  O37  1  0.38369000  0.38565900  0.38653100  1
  O  O38  1  0.38807000  0.10216700  0.12074500  1
  O  O39  1  0.39476900  0.87946200  0.89126100  1
  O  O40  1  0.60183900  0.37542200  0.60785600  1
  O  O41  1  0.60810600  0.60145900  0.37541800  1
  O  O42  1  0.61401100  0.88557200  0.11261600  1
  O  O43  1  0.60751400  0.11149200  0.89460600  1
  O  O44  1  0.62061100  0.34939200  0.14468900  1
  O  O45  1  0.63402200  0.13431600  0.36378700  1
  O  O46  1  0.64125700  0.87470900  0.64831800  1
  O  O47  1  0.64720500  0.64334200  0.87475200  1
  O  O48  1  0.84986800  0.35503800  0.37838400  1
  O  O49  1  0.85438400  0.12164400  0.14914400  1
  O  O50  1  0.86282100  0.86720900  0.86452000  1
  O  O51  1  0.87494000  0.64919600  0.64220300  1
  O  O52  1  0.87521500  0.89217700  0.39922600  1
  O  O53  1  0.88721700  0.11457400  0.61708800  1
  O  O54  1  0.89566400  0.39910500  0.87158500  1
  O  O55  1  0.90009800  0.62829100  0.10485800  1
