# generated using pymatgen
data_LiMn5O8
_symmetry_space_group_name_H-M   'P 1'
_cell_length_a   8.36485177
_cell_length_b   8.36823986
_cell_length_c   8.35966970
_cell_angle_alpha   89.99896437
_cell_angle_beta   89.99825061
_cell_angle_gamma   89.99748889
_symmetry_Int_Tables_number   1
_chemical_formula_structural   LiMn5O8
_chemical_formula_sum   'Li4 Mn20 O32'
_cell_volume   585.16923784
_cell_formula_units_Z   4
loop_
 _symmetry_equiv_pos_site_id
 _symmetry_equiv_pos_as_xyz
  1  'x, y, z'
loop_
 _atom_site_type_symbol
 _atom_site_label
 _atom_site_symmetry_multiplicity
 _atom_site_fract_x
 _atom_site_fract_y
 _atom_site_fract_z
 _atom_site_occupancy
  Li  Li0  1  0.62502347  0.37499502  0.87500022  1
  Li  Li1  1  0.87495819  0.62499676  0.37500795  1
  Li  Li2  1  0.12502718  0.12504081  0.12497954  1
  Li  Li3  1  0.37500906  0.87498270  0.62502814  1
  Mn  Mn4  1  0.50133464  0.50126130  0.50128689  1
  Mn  Mn5  1  0.49867056  0.00124341  0.99865715  1
  Mn  Mn6  1  0.62659978  0.62323149  0.12506602  1
  Mn  Mn7  1  0.62332604  0.12509309  0.62663612  1
  Mn  Mn8  1  0.62512834  0.87330428  0.37666128  1
  Mn  Mn9  1  0.74866918  0.74865165  0.74864366  1
  Mn  Mn10  1  0.75132255  0.25137569  0.24864324  1
  Mn  Mn11  1  0.87672305  0.87489772  0.12658512  1
  Mn  Mn12  1  0.87487452  0.12671788  0.87661220  1
  Mn  Mn13  1  0.87336057  0.37671231  0.62511990  1
  Mn  Mn14  1  0.99866364  0.49870003  0.00127241  1
  Mn  Mn15  1  0.00132395  0.99871638  0.49866942  1
  Mn  Mn16  1  0.12509342  0.62667714  0.62337219  1
  Mn  Mn17  1  0.12662049  0.87673355  0.87489381  1
  Mn  Mn18  1  0.12324999  0.37491978  0.37342552  1
  Mn  Mn19  1  0.24865741  0.75138188  0.25139124  1
  Mn  Mn20  1  0.25132177  0.24863827  0.75139061  1
  Mn  Mn21  1  0.37675272  0.62509235  0.87343756  1
  Mn  Mn22  1  0.37337601  0.12325745  0.37490479  1
  Mn  Mn23  1  0.37490381  0.37336026  0.12330663  1
  O  O24  1  0.62687257  0.89066961  0.60399793  1
  O  O25  1  0.63804749  0.86192897  0.13803288  1
  O  O26  1  0.64604939  0.35948878  0.62331982  1
  O  O27  1  0.60421308  0.62680293  0.89088995  1
  O  O28  1  0.60923914  0.39598422  0.12676959  1
  O  O29  1  0.62327877  0.64582571  0.35927524  1
  O  O30  1  0.64054355  0.12330872  0.85405295  1
  O  O31  1  0.61202728  0.11204187  0.38802539  1
  O  O32  1  0.89068934  0.60397005  0.62685969  1
  O  O33  1  0.88797703  0.88797318  0.88798612  1
  O  O34  1  0.85390626  0.64039145  0.12326337  1
  O  O35  1  0.85948269  0.87669395  0.35403714  1
  O  O36  1  0.86198109  0.13805073  0.63808806  1
  O  O37  1  0.87668697  0.35414861  0.85927591  1
  O  O38  1  0.87315183  0.10942510  0.10389401  1
  O  O39  1  0.89577166  0.37318250  0.39093996  1
  O  O40  1  0.13799797  0.63806038  0.86190506  1
  O  O41  1  0.12327118  0.85418171  0.64069071  1
  O  O42  1  0.10415981  0.87318799  0.10910377  1
  O  O43  1  0.10915088  0.10405269  0.87313409  1
  O  O44  1  0.12677390  0.60942274  0.39607144  1
  O  O45  1  0.14605251  0.14044309  0.37673074  1
  O  O46  1  0.11195458  0.38797719  0.61203295  1
  O  O47  1  0.14049708  0.37674841  0.14597014  1
  O  O48  1  0.35959585  0.62328426  0.64604164  1
  O  O49  1  0.38801715  0.61206735  0.11196223  1
  O  O50  1  0.35393268  0.85949036  0.87672202  1
  O  O51  1  0.39591102  0.12679991  0.60925376  1
  O  O52  1  0.37674361  0.14589514  0.14058678  1
  O  O53  1  0.39082517  0.89590605  0.37319765  1
  O  O54  1  0.37321726  0.39066179  0.89599789  1
  O  O55  1  0.36199089  0.36195336  0.36189953  1
