# generated using pymatgen
data_Li6V3P8O29
_symmetry_space_group_name_H-M   'P 1'
_cell_length_a   9.75485729
_cell_length_b   9.81012675
_cell_length_c   13.97359197
_cell_angle_alpha   90.16284684
_cell_angle_beta   90.45481328
_cell_angle_gamma   60.18363522
_symmetry_Int_Tables_number   1
_chemical_formula_structural   Li6V3P8O29
_chemical_formula_sum   'Li12 V6 P16 O58'
_cell_volume   1160.16792587
_cell_formula_units_Z   2
loop_
 _symmetry_equiv_pos_site_id
 _symmetry_equiv_pos_as_xyz
  1  'x, y, z'
loop_
 _atom_site_type_symbol
 _atom_site_label
 _atom_site_symmetry_multiplicity
 _atom_site_fract_x
 _atom_site_fract_y
 _atom_site_fract_z
 _atom_site_occupancy
  Li  Li0  1  0.76116546  0.90500671  0.55609803  1
  Li  Li1  1  0.90110050  0.33733380  0.55889224  1
  Li  Li2  1  0.67704749  0.66212157  0.88941391  1
  Li  Li3  1  0.76434569  0.32905942  0.06687775  1
  Li  Li4  1  0.32816715  0.90719340  0.06362367  1
  Li  Li5  1  0.32930456  0.76403781  0.55778118  1
  Li  Li6  1  0.66687401  0.09919322  0.94327642  1
  Li  Li7  1  0.23333045  0.66698295  0.94552714  1
  Li  Li8  1  0.09753507  0.66327211  0.43402030  1
  Li  Li9  1  0.23363457  0.10309548  0.43858867  1
  Li  Li10  1  0.99656568  0.00222574  0.01134017  1
  Li  Li11  1  0.94281393  0.04245270  0.48584653  1
  V  V12  1  0.56523950  0.43267410  0.25416023  1
  V  V13  1  0.43805756  0.56125764  0.74697206  1
  V  V14  1  0.56654470  0.00007144  0.74820394  1
  V  V15  1  0.43535217  0.00120555  0.25151758  1
  V  V16  1  0.99765571  0.56247084  0.24240303  1
  V  V17  1  0.00529597  0.43409601  0.75413147  1
  P  P18  1  0.91422707  0.78045724  0.83957906  1
  P  P19  1  0.77997605  0.91130056  0.34019599  1
  P  P20  1  0.91539168  0.31295364  0.34363591  1
  P  P21  1  0.66240421  0.66521397  0.12983961  1
  P  P22  1  0.66888720  0.66569799  0.63006137  1
  P  P23  1  0.77599102  0.31466582  0.84527555  1
  P  P24  1  0.69502382  0.22226562  0.65855333  1
  P  P25  1  0.31694502  0.90531918  0.84557646  1
  P  P26  1  0.68835461  0.08860766  0.15690444  1
  P  P27  1  0.31345319  0.77443944  0.34293262  1
  P  P28  1  0.22522360  0.68768153  0.15859816  1
  P  P29  1  0.32937039  0.33526445  0.36752751  1
  P  P30  1  0.33880972  0.33429526  0.87093654  1
  P  P31  1  0.08230610  0.68776759  0.65239077  1
  P  P32  1  0.22400281  0.08405751  0.66057734  1
  P  P33  1  0.08446698  0.21790600  0.15923005  1
  O  O34  1  0.99692747  0.77175766  0.56174038  1
  O  O35  1  0.91960719  0.74317211  0.33644607  1
  O  O36  1  0.77769164  0.01428298  0.06648865  1
  O  O37  1  0.74171550  0.92261922  0.84091036  1
  O  O38  1  0.89996991  0.62930036  0.83294257  1
  O  O39  1  0.80937398  0.66948513  0.17326539  1
  O  O40  1  0.92131024  0.46433005  0.33321714  1
  O  O41  1  0.99273667  0.19896490  0.07838850  1
  O  O42  1  0.91932205  0.33775757  0.84153681  1
  O  O43  1  0.67841656  0.81206965  0.66887802  1
  O  O44  1  0.62012529  0.91405872  0.32819023  1
  O  O45  1  0.81328226  0.51406507  0.67421796  1
  O  O46  1  0.66091355  0.66618431  0.02174941  1
  O  O47  1  0.66807916  0.66328661  0.52353133  1
  O  O48  1  0.67533169  0.50982901  0.16711406  1
  O  O49  1  0.48103645  0.89166726  0.82970260  1
  O  O50  1  0.51063452  0.81017915  0.16898923  1
  O  O51  1  0.74475123  0.34438789  0.33793412  1
  O  O52  1  0.78876521  0.20051392  0.75869387  1
  O  O53  1  0.80309327  0.20783818  0.57864224  1
  O  O54  1  0.76686981  0.23598086  0.93582649  1
  O  O55  1  0.62656099  0.47935202  0.82920456  1
  O  O56  1  0.51310864  0.67599165  0.67144474  1
  O  O57  1  0.66105075  0.25803390  0.16316024  1
  O  O58  1  0.47002548  0.62268960  0.33170275  1
  O  O59  1  0.33690739  0.91976993  0.34375476  1
  O  O60  1  0.79872169  0.99985307  0.24885504  1
  O  O61  1  0.78658503  0.99116463  0.43103321  1
  O  O62  1  0.23068710  0.99623736  0.57023256  1
  O  O63  1  0.66278172  0.08236308  0.65715101  1
  O  O64  1  0.54045515  0.38083956  0.66388065  1
  O  O65  1  0.33829911  0.73835854  0.84032179  1
  O  O66  1  0.48031606  0.32486483  0.32412212  1
  O  O67  1  0.38502572  0.53629368  0.17134404  1
  O  O68  1  0.22091024  0.77997535  0.06994508  1
  O  O69  1  0.22180348  0.77695060  0.43101396  1
  O  O70  1  0.20359474  0.79833930  0.25036034  1
  O  O71  1  0.24962938  0.66680326  0.65640816  1
  O  O72  1  0.48848294  0.18636930  0.83241462  1
  O  O73  1  0.53382394  0.08554542  0.16839968  1
  O  O74  1  0.33511231  0.48388117  0.82412619  1
  O  O75  1  0.33600046  0.34782652  0.97657871  1
  O  O76  1  0.32122899  0.33721220  0.47455565  1
  O  O77  1  0.18417730  0.48741298  0.32365897  1
  O  O78  1  0.38185067  0.08540127  0.67655695  1
  O  O79  1  0.31862754  0.18874882  0.32837876  1
  O  O80  1  0.08894766  0.65469352  0.15769750  1
  O  O81  1  0.98552559  0.80184026  0.74069477  1
  O  O82  1  0.00939056  0.78944581  0.92082785  1
  O  O83  1  0.08482079  0.53191182  0.66813721  1
  O  O84  1  0.18979755  0.33589104  0.82439732  1
  O  O85  1  0.08376323  0.37399221  0.16434641  1
  O  O86  1  0.25724980  0.07844106  0.16067570  1
  O  O87  1  0.23453292  0.98525952  0.93564463  1
  O  O88  1  0.20620461  0.99779500  0.75328802  1
  O  O89  1  0.08347948  0.25178257  0.65957656  1
  O  O90  1  0.99519317  0.22200266  0.43514646  1
  O  O91  1  0.01071355  0.19531296  0.25780960  1
