# generated using pymatgen
data_LiTiO2
_symmetry_space_group_name_H-M   'P 1'
_cell_length_a   5.83094661
_cell_length_b   5.83094661
_cell_length_c   5.83094661
_cell_angle_alpha   120.49134975
_cell_angle_beta   120.26658763
_cell_angle_gamma   89.34496226
_symmetry_Int_Tables_number   1
_chemical_formula_structural   LiTiO2
_chemical_formula_sum   'Li4 Ti4 O8'
_cell_volume   139.37166012
_cell_formula_units_Z   4
loop_
 _symmetry_equiv_pos_site_id
 _symmetry_equiv_pos_as_xyz
  1  'x, y, z'
loop_
 _atom_site_type_symbol
 _atom_site_label
 _atom_site_symmetry_multiplicity
 _atom_site_fract_x
 _atom_site_fract_y
 _atom_site_fract_z
 _atom_site_occupancy
  Li  Li0  1  0.00000000  0.50000000  0.50000000  1
  Li  Li1  1  0.00000000  0.50000000  0.00000000  1
  Li  Li2  1  0.00000000  -0.00000000  0.50000000  1
  Li  Li3  1  0.50000000  -0.00000000  0.50000000  1
  Ti  Ti4  1  0.00000000  -0.00000000  0.00000000  1
  Ti  Ti5  1  0.50000000  -0.00000000  0.00000000  1
  Ti  Ti6  1  0.50000000  0.50000000  0.50000000  1
  Ti  Ti7  1  0.50000000  0.50000000  0.00000000  1
  O  O8  1  0.72884979  0.25000000  0.47884979  1
  O  O9  1  0.25020733  0.25020733  0.50000000  1
  O  O10  1  0.25020733  0.75020733  0.00000000  1
  O  O11  1  0.27115021  0.75000000  0.52115021  1
  O  O12  1  0.75847883  0.75000000  0.00847883  1
  O  O13  1  0.74979267  0.74979267  0.50000000  1
  O  O14  1  0.74979267  0.24979267  -0.00000000  1
  O  O15  1  0.24152117  0.25000000  0.99152117  1
