# generated using pymatgen
data_Li9Cr12Co7O48
_symmetry_space_group_name_H-M   'P 1'
_cell_length_a   5.10606321
_cell_length_b   10.25808445
_cell_length_c   17.34837111
_cell_angle_alpha   89.91482389
_cell_angle_beta   89.90241867
_cell_angle_gamma   90.00301133
_symmetry_Int_Tables_number   1
_chemical_formula_structural   Li9Cr12Co7O48
_chemical_formula_sum   'Li9 Cr12 Co7 O48'
_cell_volume   908.67807772
_cell_formula_units_Z   1
loop_
 _symmetry_equiv_pos_site_id
 _symmetry_equiv_pos_as_xyz
  1  'x, y, z'
loop_
 _atom_site_type_symbol
 _atom_site_label
 _atom_site_symmetry_multiplicity
 _atom_site_fract_x
 _atom_site_fract_y
 _atom_site_fract_z
 _atom_site_occupancy
  Li  Li0  1  0.09412154  0.24863127  0.24881166  1
  Li  Li1  1  0.24601785  0.41961372  0.97201806  1
  Li  Li2  1  0.24871025  0.57937580  0.47276610  1
  Li  Li3  1  0.24867493  0.92063473  0.47281753  1
  Li  Li4  1  0.25738212  0.25166528  0.80331307  1
  Li  Li5  1  0.74621802  0.75316786  0.19456200  1
  Li  Li6  1  0.75411929  0.92345647  0.02886876  1
  Li  Li7  1  0.76507816  0.25150388  0.70001135  1
  Li  Li8  1  0.90555127  0.74967516  0.74841425  1
  Cr  Cr9  1  0.22742355  0.74956245  0.94242389  1
  Cr  Cr10  1  0.22898207  0.02691496  0.65490378  1
  Cr  Cr11  1  0.22848277  0.47194672  0.65451482  1
  Cr  Cr12  1  0.28311941  0.52869316  0.15502920  1
  Cr  Cr13  1  0.27914993  0.97248697  0.15664245  1
  Cr  Cr14  1  0.28161316  0.25018838  0.44507846  1
  Cr  Cr15  1  0.71766790  0.75034881  0.55871550  1
  Cr  Cr16  1  0.71736911  0.47485180  0.84357567  1
  Cr  Cr17  1  0.71605644  0.02607637  0.84545697  1
  Cr  Cr18  1  0.77030439  0.53040766  0.34356429  1
  Cr  Cr19  1  0.77089997  0.96935750  0.34421359  1
  Cr  Cr20  1  0.77462346  0.24927491  0.05552897  1
  Co  Co21  1  0.24334679  0.75082609  0.29997657  1
  Co  Co22  1  0.24508836  0.07157048  0.97514577  1
  Co  Co23  1  0.40891990  0.74851409  0.75077723  1
  Co  Co24  1  0.59305917  0.24982831  0.24783540  1
  Co  Co25  1  0.75370951  0.07068687  0.52689516  1
  Co  Co26  1  0.75460332  0.42982057  0.52682288  1
  Co  Co27  1  0.75704788  0.57118145  0.02522971  1
  O  O28  1  0.04972776  0.24240674  0.00091882  1
  O  O29  1  0.04704769  0.61174292  0.36583830  1
  O  O30  1  0.04793326  0.88852006  0.36692096  1
  O  O31  1  0.11125456  0.62775792  0.21141255  1
  O  O32  1  0.10004162  0.87365418  0.21237515  1
  O  O33  1  0.09835291  0.12144247  0.46697244  1
  O  O34  1  0.09898775  0.37929964  0.46643098  1
  O  O35  1  0.09940278  0.00402372  0.07824355  1
  O  O36  1  0.09418786  0.49900955  0.07860825  1
  O  O37  1  0.17650647  0.74803168  0.84532296  1
  O  O38  1  0.17847905  0.61488402  0.70304941  1
  O  O39  1  0.18323403  0.88292105  0.70386960  1
  O  O40  1  0.34708202  0.11214058  0.20397376  1
  O  O41  1  0.34869096  0.38935066  0.20196253  1
  O  O42  1  0.35237697  0.25010584  0.35130643  1
  O  O43  1  0.41064542  0.49869185  0.57643316  1
  O  O44  1  0.41068977  0.00074253  0.57671070  1
  O  O45  1  0.39164043  0.88317017  0.96544463  1
  O  O46  1  0.41580594  0.62448579  0.96618355  1
  O  O47  1  0.39600174  0.12511954  0.70914182  1
  O  O48  1  0.39768361  0.37392553  0.70882294  1
  O  O49  1  0.44249434  0.10521313  0.87358224  1
  O  O50  1  0.45110851  0.39471155  0.86939427  1
  O  O51  1  0.45686967  0.75011474  0.50250128  1
  O  O52  1  0.56085498  0.25007037  0.50224292  1
  O  O53  1  0.55881500  0.60591498  0.12605556  1
  O  O54  1  0.54883756  0.89520271  0.13060549  1
  O  O55  1  0.57600970  0.62619255  0.29213413  1
  O  O56  1  0.57604113  0.87336872  0.29321072  1
  O  O57  1  0.58266681  0.12465774  0.03293907  1
  O  O58  1  0.60779085  0.38394761  0.03348966  1
  O  O59  1  0.60592316  0.00370327  0.42513479  1
  O  O60  1  0.60701847  0.49651672  0.42476248  1
  O  O61  1  0.64030531  0.75028879  0.65394516  1
  O  O62  1  0.64206219  0.61733759  0.79508229  1
  O  O63  1  0.64583393  0.88531992  0.79730132  1
  O  O64  1  0.82998454  0.10860499  0.29646061  1
  O  O65  1  0.82879243  0.39061360  0.29598406  1
  O  O66  1  0.83334733  0.24845403  0.15092042  1
  O  O67  1  0.89669861  0.50697127  0.92207741  1
  O  O68  1  0.90443137  0.99608277  0.92220593  1
  O  O69  1  0.89923141  0.61937940  0.53751691  1
  O  O70  1  0.89993894  0.88124269  0.53768426  1
  O  O71  1  0.88892925  0.12216247  0.78973751  1
  O  O72  1  0.89976396  0.38121241  0.78929146  1
  O  O73  1  0.94659563  0.10124124  0.62851035  1
  O  O74  1  0.94644141  0.39714945  0.62786055  1
  O  O75  1  0.95010242  0.74263315  0.99551457  1
