# generated using pymatgen
data_Li6Ti15Co3O32
_symmetry_space_group_name_H-M   'P 1'
_cell_length_a   8.47032534
_cell_length_b   8.46934689
_cell_length_c   8.46895131
_cell_angle_alpha   90.12966480
_cell_angle_beta   90.12310582
_cell_angle_gamma   89.86966300
_symmetry_Int_Tables_number   1
_chemical_formula_structural   Li6Ti15Co3O32
_chemical_formula_sum   'Li6 Ti15 Co3 O32'
_cell_volume   607.54215232
_cell_formula_units_Z   1
loop_
 _symmetry_equiv_pos_site_id
 _symmetry_equiv_pos_as_xyz
  1  'x, y, z'
loop_
 _atom_site_type_symbol
 _atom_site_label
 _atom_site_symmetry_multiplicity
 _atom_site_fract_x
 _atom_site_fract_y
 _atom_site_fract_z
 _atom_site_occupancy
  Li  Li0  1  0.24871700  0.74866500  0.75099600  1
  Li  Li1  1  0.25152600  0.25209700  0.24989900  1
  Li  Li2  1  0.50119200  0.00132300  0.49894400  1
  Li  Li3  1  0.75029500  0.75164800  0.24799200  1
  Li  Li4  1  0.75211700  0.25031700  0.74826700  1
  Li  Li5  1  0.87540700  0.37509400  0.12437700  1
  Ti  Ti6  1  0.11674000  0.61821200  0.12548100  1
  Ti  Ti7  1  0.11854700  0.37462100  0.88344000  1
  Ti  Ti8  1  0.12570600  0.87766900  0.37699900  1
  Ti  Ti9  1  0.12616400  0.12207700  0.62179200  1
  Ti  Ti10  1  0.37760500  0.87810400  0.12613100  1
  Ti  Ti11  1  0.37751600  0.12307700  0.87450900  1
  Ti  Ti12  1  0.37813800  0.62625300  0.37786800  1
  Ti  Ti13  1  0.37796400  0.37408600  0.62228300  1
  Ti  Ti14  1  0.62196700  0.87842000  0.87375300  1
  Ti  Ti15  1  0.62734000  0.12864000  0.12487200  1
  Ti  Ti16  1  0.62308600  0.62560600  0.62223200  1
  Ti  Ti17  1  0.62868600  0.37543400  0.37267500  1
  Ti  Ti18  1  0.87479900  0.61638100  0.88192000  1
  Ti  Ti19  1  0.87402300  0.87737900  0.62179400  1
  Ti  Ti20  1  0.87503700  0.12729900  0.37160600  1
  Co  Co21  1  0.99955400  0.49801700  0.50014600  1
  Co  Co22  1  0.49971300  0.49976500  0.00181600  1
  Co  Co23  1  0.99802100  0.99928200  0.00043400  1
  O  O24  1  0.11351500  0.11355700  0.38622100  1
  O  O25  1  0.11245300  0.61253000  0.88750000  1
  O  O26  1  0.11337500  0.88648600  0.61313500  1
  O  O27  1  0.13370700  0.13493500  0.86583300  1
  O  O28  1  0.12607200  0.39118500  0.10926500  1
  O  O29  1  0.13423600  0.63378300  0.36518200  1
  O  O30  1  0.13805400  0.36428600  0.63723600  1
  O  O31  1  0.13721500  0.86319700  0.13495800  1
  O  O32  1  0.36232700  0.13735700  0.63807200  1
  O  O33  1  0.36277800  0.63813000  0.13568200  1
  O  O34  1  0.36334400  0.36522700  0.86289100  1
  O  O35  1  0.38712000  0.61344100  0.61365500  1
  O  O36  1  0.36198600  0.86252200  0.36290000  1
  O  O37  1  0.38777200  0.11137500  0.11288900  1
  O  O38  1  0.38857000  0.38769400  0.38945300  1
  O  O39  1  0.38644100  0.88691500  0.88664500  1
  O  O40  1  0.61140400  0.38721200  0.61203700  1
  O  O41  1  0.61043500  0.88861000  0.11239700  1
  O  O42  1  0.61375100  0.61378200  0.38629400  1
  O  O43  1  0.62407600  0.36121600  0.13947000  1
  O  O44  1  0.61356900  0.11387000  0.88647800  1
  O  O45  1  0.63738100  0.86202400  0.63753000  1
  O  O46  1  0.63771300  0.13786700  0.36240700  1
  O  O47  1  0.63516300  0.63436500  0.86613000  1
  O  O48  1  0.86135600  0.36043000  0.37529200  1
  O  O49  1  0.86405700  0.86272500  0.86173300  1
  O  O50  1  0.86024700  0.12385400  0.13884400  1
  O  O51  1  0.88726600  0.88767600  0.38863300  1
  O  O52  1  0.86519700  0.63706000  0.63669800  1
  O  O53  1  0.89125400  0.39078700  0.87421800  1
  O  O54  1  0.88754700  0.11047100  0.61134300  1
  O  O55  1  0.89075100  0.62598400  0.10877600  1
