# generated using pymatgen
data_Li5V3P8O29
_symmetry_space_group_name_H-M   'P 1'
_cell_length_a   9.77464357
_cell_length_b   9.79829251
_cell_length_c   14.06923673
_cell_angle_alpha   89.84221168
_cell_angle_beta   89.77219844
_cell_angle_gamma   60.08623141
_symmetry_Int_Tables_number   1
_chemical_formula_structural   Li5V3P8O29
_chemical_formula_sum   'Li10 V6 P16 O58'
_cell_volume   1167.95364989
_cell_formula_units_Z   2
loop_
 _symmetry_equiv_pos_site_id
 _symmetry_equiv_pos_as_xyz
  1  'x, y, z'
loop_
 _atom_site_type_symbol
 _atom_site_label
 _atom_site_symmetry_multiplicity
 _atom_site_fract_x
 _atom_site_fract_y
 _atom_site_fract_z
 _atom_site_occupancy
  Li  Li0  1  0.76279851  0.89859502  0.55888967  1
  Li  Li1  1  0.89884176  0.33521552  0.56142784  1
  Li  Li2  1  0.76493863  0.33873765  0.05860381  1
  Li  Li3  1  0.33102568  0.90598368  0.05879878  1
  Li  Li4  1  0.33039035  0.76383704  0.56070477  1
  Li  Li5  1  0.66954053  0.09599576  0.93970383  1
  Li  Li6  1  0.23417948  0.66326366  0.93995572  1
  Li  Li7  1  0.23423008  0.09848230  0.44179364  1
  Li  Li8  1  0.99744778  0.99966392  0.99885526  1
  Li  Li9  1  0.96993696  0.98719310  0.49775394  1
  V  V10  1  0.56520748  0.43417776  0.25709478  1
  V  V11  1  0.43499895  0.56397625  0.74591724  1
  V  V12  1  0.56725488  0.99925538  0.75179938  1
  V  V13  1  0.43634022  0.00069016  0.24651319  1
  V  V14  1  0.99932029  0.56630430  0.24679548  1
  V  V15  1  0.00124009  0.43569104  0.75282400  1
  P  P16  1  0.91807654  0.77711681  0.84443470  1
  P  P17  1  0.77716826  0.91014726  0.33958940  1
  P  P18  1  0.91623480  0.31224794  0.34317033  1
  P  P19  1  0.66708875  0.66234721  0.13113210  1
  P  P20  1  0.66778459  0.66666012  0.62986088  1
  P  P21  1  0.77199134  0.31501997  0.84152550  1
  P  P22  1  0.69325234  0.22113156  0.65858198  1
  P  P23  1  0.31362862  0.90997052  0.84223804  1
  P  P24  1  0.68868384  0.09169190  0.15851905  1
  P  P25  1  0.31243204  0.77694384  0.34322856  1
  P  P26  1  0.22657613  0.68689453  0.16108245  1
  P  P27  1  0.32729870  0.33390035  0.36826377  1
  P  P28  1  0.33428243  0.33423783  0.86901588  1
  P  P29  1  0.08106694  0.69406011  0.65704963  1
  P  P30  1  0.22611900  0.08808414  0.65995863  1
  P  P31  1  0.08392963  0.22243345  0.15790834  1
  O  O32  1  0.99214469  0.79444099  0.57385610  1
  O  O33  1  0.91698067  0.73925612  0.32829142  1
  O  O34  1  0.77351943  0.02062149  0.06765487  1
  O  O35  1  0.74616787  0.91887480  0.84184901  1
  O  O36  1  0.91832254  0.62127860  0.83291628  1
  O  O37  1  0.81203201  0.66501559  0.17728629  1
  O  O38  1  0.91618185  0.46792114  0.32758653  1
  O  O39  1  0.99045785  0.20936868  0.07832996  1
  O  O40  1  0.91385834  0.34291261  0.83283418  1
  O  O41  1  0.67725041  0.81128312  0.67029794  1
  O  O42  1  0.61963430  0.91402324  0.32783093  1
  O  O43  1  0.81112808  0.51319348  0.67125339  1
  O  O44  1  0.67171875  0.65384436  0.02549997  1
  O  O45  1  0.66924191  0.66583676  0.52339940  1
  O  O46  1  0.67124444  0.51213208  0.17427027  1
  O  O47  1  0.47035758  0.91107732  0.82822163  1
  O  O48  1  0.51282942  0.81175374  0.16801603  1
  O  O49  1  0.74633431  0.34085277  0.33755708  1
  O  O50  1  0.79003969  0.19866575  0.75621323  1
  O  O51  1  0.79859564  0.20622659  0.57698093  1
  O  O52  1  0.77823067  0.22979280  0.93270119  1
  O  O53  1  0.61723611  0.46987512  0.82786619  1
  O  O54  1  0.51018680  0.67878434  0.66852015  1
  O  O55  1  0.65778751  0.26299045  0.16654451  1
  O  O56  1  0.47005608  0.62095158  0.32762914  1
  O  O57  1  0.34153751  0.91867238  0.33642944  1
  O  O58  1  0.79626626  0.00280421  0.24944510  1
  O  O59  1  0.79327699  0.98012889  0.43002745  1
  O  O60  1  0.22553839  0.00123010  0.57119053  1
  O  O61  1  0.66008642  0.08149152  0.65981088  1
  O  O62  1  0.53780206  0.37900055  0.66770999  1
  O  O63  1  0.34193027  0.73950523  0.83558633  1
  O  O64  1  0.47700739  0.33427373  0.32651313  1
  O  O65  1  0.38265778  0.53289259  0.17477520  1
  O  O66  1  0.22244698  0.77607312  0.07244656  1
  O  O67  1  0.22988270  0.78328465  0.43371385  1
  O  O68  1  0.20386913  0.79633124  0.25241438  1
  O  O69  1  0.25452331  0.65954900  0.65722173  1
  O  O70  1  0.49074487  0.18711717  0.83102637  1
  O  O71  1  0.53157601  0.09089556  0.17122657  1
  O  O72  1  0.32585016  0.48775892  0.82780612  1
  O  O73  1  0.33404014  0.33743712  0.97518023  1
  O  O74  1  0.31778623  0.34121620  0.47351722  1
  O  O75  1  0.18389371  0.47791803  0.31769840  1
  O  O76  1  0.38022536  0.09051385  0.67339940  1
  O  O77  1  0.32553072  0.18552905  0.32900167  1
  O  O78  1  0.08554213  0.65722644  0.16369157  1
  O  O79  1  0.00142422  0.79796059  0.75046338  1
  O  O80  1  0.00629399  0.79145179  0.92728350  1
  O  O81  1  0.07655850  0.53947450  0.67005680  1
  O  O82  1  0.19274578  0.32747007  0.82262803  1
  O  O83  1  0.07872321  0.38182279  0.16809367  1
  O  O84  1  0.25679841  0.08368455  0.15669704  1
  O  O85  1  0.22980113  0.98245699  0.93348072  1
  O  O86  1  0.20413007  0.00056932  0.75191768  1
  O  O87  1  0.08091059  0.25616693  0.66046792  1
  O  O88  1  0.99763923  0.22877101  0.43363627  1
  O  O89  1  0.01256176  0.19754627  0.25684467  1
