# generated using pymatgen
data_Li9Cr12Co7O48
_symmetry_space_group_name_H-M   'P 1'
_cell_length_a   5.08777756
_cell_length_b   10.27747485
_cell_length_c   17.27536600
_cell_angle_alpha   90.10857105
_cell_angle_beta   89.78971076
_cell_angle_gamma   89.90451779
_symmetry_Int_Tables_number   1
_chemical_formula_structural   Li9Cr12Co7O48
_chemical_formula_sum   'Li9 Cr12 Co7 O48'
_cell_volume   903.31138152
_cell_formula_units_Z   1
loop_
 _symmetry_equiv_pos_site_id
 _symmetry_equiv_pos_as_xyz
  1  'x, y, z'
loop_
 _atom_site_type_symbol
 _atom_site_label
 _atom_site_symmetry_multiplicity
 _atom_site_fract_x
 _atom_site_fract_y
 _atom_site_fract_z
 _atom_site_occupancy
  Li  Li0  1  0.24488515  0.42209427  0.97060451  1
  Li  Li1  1  0.24904281  0.74716603  0.30453803  1
  Li  Li2  1  0.25963285  0.25368738  0.80065972  1
  Li  Li3  1  0.25388494  0.57844158  0.46939912  1
  Li  Li4  1  0.40450930  0.74870070  0.75050454  1
  Li  Li5  1  0.59590994  0.25200215  0.25028232  1
  Li  Li6  1  0.74510544  0.07841566  0.52802766  1
  Li  Li7  1  0.73908725  0.74473151  0.20052914  1
  Li  Li8  1  0.75352801  0.24983812  0.69728972  1
  Cr  Cr9  1  0.21666427  0.75058024  0.94470432  1
  Cr  Cr10  1  0.21985243  0.02597272  0.65640388  1
  Cr  Cr11  1  0.21591825  0.47205576  0.65356694  1
  Cr  Cr12  1  0.27440517  0.52841440  0.15438432  1
  Cr  Cr13  1  0.27692630  0.97218458  0.15555512  1
  Cr  Cr14  1  0.27618429  0.25092368  0.44490783  1
  Cr  Cr15  1  0.72596991  0.75096911  0.55501671  1
  Cr  Cr16  1  0.72193831  0.02765163  0.84559062  1
  Cr  Cr17  1  0.72977234  0.47460803  0.84408968  1
  Cr  Cr18  1  0.78002411  0.52614658  0.34406846  1
  Cr  Cr19  1  0.78286877  0.97236016  0.34584107  1
  Cr  Cr20  1  0.78060423  0.24777676  0.05584251  1
  Co  Co21  1  0.09387057  0.25079639  0.25266798  1
  Co  Co22  1  0.24796059  0.07321301  0.97444894  1
  Co  Co23  1  0.25446834  0.93139886  0.47360116  1
  Co  Co24  1  0.74316428  0.42808758  0.52400433  1
  Co  Co25  1  0.74747998  0.56895251  0.02752768  1
  Co  Co26  1  0.74782337  0.92720233  0.02825841  1
  Co  Co27  1  0.90655306  0.74998521  0.74595346  1
  O  O28  1  0.05120992  0.24333799  0.99830923  1
  O  O29  1  0.04962560  0.60553740  0.36930287  1
  O  O30  1  0.06076832  0.89365136  0.37384006  1
  O  O31  1  0.10178296  0.62674721  0.20838164  1
  O  O32  1  0.10222968  0.87732519  0.20971036  1
  O  O33  1  0.10501429  0.11776125  0.46724817  1
  O  O34  1  0.08303761  0.37618497  0.46680887  1
  O  O35  1  0.08864088  0.00076361  0.07487573  1
  O  O36  1  0.09040526  0.49925307  0.07563060  1
  O  O37  1  0.14468890  0.75056246  0.85027818  1
  O  O38  1  0.14684263  0.61390545  0.70270946  1
  O  O39  1  0.14450110  0.88327636  0.70544824  1
  O  O40  1  0.33427255  0.11267746  0.20163015  1
  O  O41  1  0.33031199  0.38763534  0.20122305  1
  O  O42  1  0.33794937  0.25142627  0.34966132  1
  O  O43  1  0.40050482  0.99302993  0.57754643  1
  O  O44  1  0.40445529  0.50384361  0.57709310  1
  O  O45  1  0.40293357  0.88175590  0.96656375  1
  O  O46  1  0.40528324  0.62520338  0.96631847  1
  O  O47  1  0.40308823  0.11991594  0.71084602  1
  O  O48  1  0.39138952  0.37496380  0.70764401  1
  O  O49  1  0.44301814  0.10517108  0.87254309  1
  O  O50  1  0.45438979  0.39957097  0.86804896  1
  O  O51  1  0.45216878  0.75648311  0.50056744  1
  O  O52  1  0.55050236  0.25784556  0.50074894  1
  O  O53  1  0.55860434  0.60436487  0.12681788  1
  O  O54  1  0.55698372  0.89461842  0.12820720  1
  O  O55  1  0.59533686  0.62017454  0.29010415  1
  O  O56  1  0.61046308  0.87626578  0.29005554  1
  O  O57  1  0.58831960  0.11707410  0.03415717  1
  O  O58  1  0.60340537  0.37878284  0.03408469  1
  O  O59  1  0.59345667  0.00319159  0.42353557  1
  O  O60  1  0.59997953  0.49363404  0.42433537  1
  O  O61  1  0.66640001  0.75220138  0.65286234  1
  O  O62  1  0.67246569  0.61754334  0.79483442  1
  O  O63  1  0.66706479  0.88583418  0.79812268  1
  O  O64  1  0.85077596  0.11190116  0.29868089  1
  O  O65  1  0.84967384  0.38653946  0.29596953  1
  O  O66  1  0.85426001  0.24716904  0.14898570  1
  O  O67  1  0.90374478  0.50795594  0.92426378  1
  O  O68  1  0.90730522  0.99606901  0.92517117  1
  O  O69  1  0.89538226  0.61749997  0.53373632  1
  O  O70  1  0.91793848  0.87510542  0.53298091  1
  O  O71  1  0.89965656  0.12383640  0.79262821  1
  O  O72  1  0.90957825  0.37730278  0.79052410  1
  O  O73  1  0.95145727  0.10557002  0.63122801  1
  O  O74  1  0.93937164  0.39490082  0.62474632  1
  O  O75  1  0.94132902  0.75028128  0.00272073  1
