# generated using pymatgen
data_Li5Mn(SiO3)4
_symmetry_space_group_name_H-M   'P 1'
_cell_length_a   12.29755100
_cell_length_b   12.62281816
_cell_length_c   12.62645702
_cell_angle_alpha   109.89875843
_cell_angle_beta   108.94039802
_cell_angle_gamma   109.02544224
_symmetry_Int_Tables_number   1
_chemical_formula_structural   Li5Mn(SiO3)4
_chemical_formula_sum   'Li30 Mn6 Si24 O72'
_cell_volume   1518.84988284
_cell_formula_units_Z   6
loop_
 _symmetry_equiv_pos_site_id
 _symmetry_equiv_pos_as_xyz
  1  'x, y, z'
loop_
 _atom_site_type_symbol
 _atom_site_label
 _atom_site_symmetry_multiplicity
 _atom_site_fract_x
 _atom_site_fract_y
 _atom_site_fract_z
 _atom_site_occupancy
  Li  Li0  1  0.17220500  0.19769800  0.00890500  1
  Li  Li1  1  0.02472100  0.19827100  0.18958500  1
  Li  Li2  1  0.35998000  0.50185200  0.53559600  1
  Li  Li3  1  0.14178000  0.50391500  0.96674400  1
  Li  Li4  1  0.40246300  0.58549200  0.10825100  1
  Li  Li5  1  0.18380100  0.58337400  0.47807900  1
  Li  Li6  1  0.35842400  0.83178100  0.98968900  1
  Li  Li7  1  0.47371400  0.83166300  0.84172400  1
  Li  Li8  1  0.59754800  0.89075800  0.41333100  1
  Li  Li9  1  0.29546500  0.89597300  0.47778100  1
  Li  Li10  1  0.23665600  0.00036300  0.99969300  1
  Li  Li11  1  0.99992200  0.00013000  0.00051100  1
  Li  Li12  1  0.76213900  0.99995700  0.99934100  1
  Li  Li13  1  0.82773800  0.99160700  0.80269400  1
  Li  Li14  1  0.16391500  0.99077600  0.18909100  1
  Li  Li15  1  0.63990500  0.00912500  0.16688700  1
  Li  Li16  1  0.36709800  0.01113200  0.84121400  1
  Li  Li17  1  0.17500900  0.03332500  0.53663300  1
  Li  Li18  1  0.85731800  0.03351200  0.49655100  1
  Li  Li19  1  0.63179200  0.15828300  0.98896200  1
  Li  Li20  1  0.52668000  0.15791900  0.16713800  1
  Li  Li21  1  0.28934500  0.28856500  0.57814200  1
  Li  Li22  1  0.00023400  0.29031400  0.70986200  1
  Li  Li23  1  0.70879000  0.42046400  0.71112600  1
  Li  Li24  1  0.63912200  0.46317500  0.49742200  1
  Li  Li25  1  0.82487500  0.46345100  0.96727100  1
  Li  Li26  1  0.81893000  0.52239700  0.42002600  1
  Li  Li27  1  0.70644300  0.52235300  0.10933200  1
  Li  Li28  1  0.97494400  0.81087400  0.80267500  1
  Li  Li29  1  0.83639800  0.81121900  0.00942900  1
  Mn  Mn30  1  0.24343500  0.48573800  0.24343700  1
  Mn  Mn31  1  0.25578200  0.51298500  0.75502100  1
  Mn  Mn32  1  0.75683900  0.75685800  0.51427200  1
  Mn  Mn33  1  0.49957200  0.24264000  0.75608000  1
  Mn  Mn34  1  0.74401400  0.24439200  0.48742500  1
  Mn  Mn35  1  0.99992500  0.75727000  0.24312000  1
  Si  Si36  1  0.23904200  0.26027300  0.79185700  1
  Si  Si37  1  0.02091800  0.26056400  0.46651800  1
  Si  Si38  1  0.53414200  0.72675300  0.00601600  1
  Si  Si39  1  0.19386100  0.72904700  0.72186800  1
  Si  Si40  1  0.02659100  0.72608200  0.99126600  1
  Si  Si41  1  0.69994000  0.72681000  0.73555400  1
  Si  Si42  1  0.25365200  0.73867300  0.20263300  1
  Si  Si43  1  0.48489100  0.73900600  0.53714800  1
  Si  Si44  1  0.05184900  0.79809700  0.53675600  1
  Si  Si45  1  0.74583600  0.79777000  0.26144400  1
  Si  Si46  1  0.52864800  0.99343000  0.72161100  1
  Si  Si47  1  0.46588800  0.99337500  0.27239900  1
  Si  Si48  1  0.03525900  0.00838800  0.73509500  1
  Si  Si49  1  0.97324000  0.00896000  0.27385800  1
  Si  Si50  1  0.76141900  0.20788200  0.73991100  1
  Si  Si51  1  0.44610400  0.20579900  0.46715300  1
  Si  Si52  1  0.96476900  0.26505000  0.99148400  1
  Si  Si53  1  0.30061600  0.26431800  0.27351800  1
  Si  Si54  1  0.47189800  0.27963900  0.00652300  1
  Si  Si55  1  0.80602300  0.27780200  0.27100100  1
  Si  Si56  1  0.94852400  0.46365300  0.20222400  1
  Si  Si57  1  0.51609900  0.46346600  0.26192300  1
  Si  Si58  1  0.55284700  0.53169300  0.79217400  1
  Si  Si59  1  0.97840500  0.53299900  0.73920300  1
  O  O60  1  0.08765100  0.15499400  0.75108300  1
  O  O61  1  0.06851300  0.15554000  0.40483800  1
  O  O62  1  0.12559200  0.34774100  0.06019500  1
  O  O63  1  0.22366500  0.34799300  0.28862700  1
  O  O64  1  0.15585900  0.39499300  0.57111700  1
  O  O65  1  0.23250100  0.39080500  0.81461400  1
  O  O66  1  0.40585600  0.47863900  0.68357500  1
  O  O67  1  0.07173100  0.47970600  0.79472400  1
  O  O68  1  0.09591000  0.50626000  0.29804800  1
  O  O69  1  0.41193600  0.50719300  0.20990900  1
  O  O70  1  0.35025200  0.59998500  0.43831600  1
  O  O71  1  0.24978500  0.59998700  0.16373000  1
  O  O72  1  0.37306100  0.64532100  0.94094200  1
  O  O73  1  0.27410400  0.64826100  0.70628200  1
  O  O74  1  0.59817500  0.65166200  0.93320800  1
  O  O75  1  0.05501400  0.65461000  0.72052900  1
  O  O76  1  0.55571800  0.71858000  0.66107200  1
  O  O77  1  0.16169300  0.71614700  0.05730100  1
  O  O78  1  0.58859900  0.73951100  0.15186700  1
  O  O79  1  0.15153600  0.74075900  0.58834700  1
  O  O80  1  0.58806900  0.79025200  0.49318800  1
  O  O81  1  0.20247100  0.79140900  0.29772300  1
  O  O82  1  0.08690300  0.83782400  0.43777400  1
  O  O83  1  0.74932700  0.83682500  0.39945400  1
  O  O84  1  0.43687100  0.84795000  0.58824800  1
  O  O85  1  0.41077200  0.84731700  0.25963900  1
  O  O86  1  0.06722000  0.85950000  0.98841400  1
  O  O87  1  0.79387300  0.85948800  0.87208600  1
  O  O88  1  0.57724100  0.86302900  0.01093600  1
  O  O89  1  0.28740200  0.86513500  0.85293000  1
  O  O90  1  0.83757800  0.94261600  0.28265800  1
  O  O91  1  0.10501200  0.94256700  0.66050600  1
  O  O92  1  0.87485000  0.93991900  0.65181800  1
  O  O93  1  0.06486900  0.94013700  0.28792600  1
  O  O94  1  0.56809500  0.98840000  0.85291200  1
  O  O95  1  0.42470100  0.98847200  0.13631200  1
  O  O96  1  0.07785400  0.01188600  0.87158500  1
  O  O97  1  0.93369000  0.01265600  0.14101500  1
  O  O98  1  0.43257300  0.05838100  0.70706300  1
  O  O99  1  0.62660100  0.05862200  0.35515800  1
  O  O100  1  0.40008100  0.06566800  0.34524600  1
  O  O101  1  0.66501500  0.06657400  0.71846400  1
  O  O102  1  0.92136200  0.12879700  0.98845500  1
  O  O103  1  0.20681000  0.12822800  0.14066100  1
  O  O104  1  0.43254700  0.14799700  0.01107900  1
  O  O105  1  0.71116400  0.14688400  0.13495000  1
  O  O106  1  0.76718100  0.18391900  0.60912100  1
  O  O107  1  0.41599300  0.17770200  0.57228300  1
  O  O108  1  0.27779800  0.20479700  0.68422000  1
  O  O109  1  0.92802200  0.20545900  0.52004500  1
  O  O110  1  0.91309700  0.24893400  0.84508800  1
  O  O111  1  0.33646100  0.24839500  0.40420100  1
  O  O112  1  0.59287300  0.31478400  0.52069400  1
  O  O113  1  0.72304800  0.31588000  0.79574400  1
  O  O114  1  0.33551600  0.28306700  0.93370800  1
  O  O115  1  0.94446400  0.27744400  0.34354000  1
  O  O116  1  0.56799800  0.29540000  0.94173800  1
  O  O117  1  0.72753200  0.29464600  0.35319700  1
  O  O118  1  0.89600300  0.34108700  0.05736600  1
  O  O119  1  0.44491200  0.33926700  0.28207700  1
  O  O120  1  0.56352400  0.41261400  0.15243300  1
  O  O121  1  0.84886700  0.41142000  0.25913000  1
  O  O122  1  0.84308300  0.42823000  0.60596000  1
  O  O123  1  0.58232000  0.42480300  0.81619900  1
  O  O124  1  0.64966600  0.56220400  0.40036400  1
  O  O125  1  0.91390200  0.56322200  0.16376000  1
  O  O126  1  0.93177400  0.59590800  0.84449000  1
  O  O127  1  0.66305800  0.59569600  0.75080600  1
  O  O128  1  0.93461000  0.71174400  0.05967700  1
  O  O129  1  0.77717200  0.71225000  0.65250100  1
  O  O130  1  0.90469900  0.70242800  0.49364400  1
  O  O131  1  0.79774100  0.70254200  0.20951400  1
