# generated using pymatgen
data_Li2Fe3NiO8
_symmetry_space_group_name_H-M   'P 1'
_cell_length_a   8.40373901
_cell_length_b   8.34200810
_cell_length_c   8.40998625
_cell_angle_alpha   90.11991602
_cell_angle_beta   90.18118101
_cell_angle_gamma   89.87976202
_symmetry_Int_Tables_number   1
_chemical_formula_structural   Li2Fe3NiO8
_chemical_formula_sum   'Li8 Fe12 Ni4 O32'
_cell_volume   589.56864265
_cell_formula_units_Z   4
loop_
 _symmetry_equiv_pos_site_id
 _symmetry_equiv_pos_as_xyz
  1  'x, y, z'
loop_
 _atom_site_type_symbol
 _atom_site_label
 _atom_site_symmetry_multiplicity
 _atom_site_fract_x
 _atom_site_fract_y
 _atom_site_fract_z
 _atom_site_occupancy
  Li  Li0  1  0.12462200  0.87539900  0.37867700  1
  Li  Li1  1  0.25655700  0.75359900  0.74101200  1
  Li  Li2  1  0.24901700  0.25204400  0.24750200  1
  Li  Li3  1  0.37647200  0.12389100  0.87493000  1
  Li  Li4  1  0.62538200  0.62339300  0.62340500  1
  Li  Li5  1  0.75120000  0.75119500  0.24438900  1
  Li  Li6  1  0.75137300  0.25312200  0.74320500  1
  Li  Li7  1  0.87486400  0.37837900  0.12646600  1
  Fe  Fe8  1  0.12145100  0.62072700  0.12692200  1
  Fe  Fe9  1  0.12618700  0.37999300  0.87823800  1
  Fe  Fe10  1  0.12310900  0.12428800  0.62198700  1
  Fe  Fe11  1  0.37364200  0.87669100  0.12595800  1
  Fe  Fe12  1  0.37749000  0.62312300  0.38285300  1
  Fe  Fe13  1  0.38011900  0.37291300  0.62910000  1
  Fe  Fe14  1  0.61873700  0.87670700  0.87461300  1
  Fe  Fe15  1  0.62335400  0.12538400  0.12003900  1
  Fe  Fe16  1  0.62400800  0.37731600  0.37610100  1
  Fe  Fe17  1  0.87474300  0.62116200  0.87445600  1
  Fe  Fe18  1  0.87483700  0.87372500  0.62241900  1
  Fe  Fe19  1  0.87903000  0.12291700  0.37250400  1
  Ni  Ni20  1  0.00111000  0.49833600  0.49668900  1
  Ni  Ni21  1  0.50092700  0.50202600  0.00045600  1
  Ni  Ni22  1  0.49904800  0.99629000  0.50564700  1
  Ni  Ni23  1  0.00312200  0.99873600  0.00345700  1
  O  O24  1  0.09652900  0.12722100  0.37926500  1
  O  O25  1  0.11049600  0.90332300  0.63248000  1
  O  O26  1  0.12227900  0.60698800  0.88151000  1
  O  O27  1  0.12334400  0.39988200  0.11145100  1
  O  O28  1  0.11248500  0.15680400  0.87209200  1
  O  O29  1  0.13427700  0.35926300  0.63417000  1
  O  O30  1  0.14760700  0.62358900  0.36764800  1
  O  O31  1  0.13818100  0.84991500  0.12288100  1
  O  O32  1  0.34995300  0.13105100  0.62198100  1
  O  O33  1  0.36525200  0.37429600  0.86209100  1
  O  O34  1  0.36142400  0.63261300  0.14280400  1
  O  O35  1  0.37908100  0.84900700  0.36891300  1
  O  O36  1  0.37563900  0.61350900  0.59938600  1
  O  O37  1  0.38426700  0.39292600  0.38298900  1
  O  O38  1  0.38943700  0.10318300  0.13174900  1
  O  O39  1  0.40110500  0.87336800  0.88647700  1
  O  O40  1  0.61061200  0.37252200  0.59764900  1
  O  O41  1  0.60357900  0.61047400  0.37316200  1
  O  O42  1  0.61561300  0.87946100  0.10281100  1
  O  O43  1  0.62963100  0.10145800  0.88690600  1
  O  O44  1  0.62059900  0.36166400  0.14643700  1
  O  O45  1  0.64447000  0.13305500  0.36457500  1
  O  O46  1  0.63386100  0.87523600  0.65251200  1
  O  O47  1  0.63557100  0.64688600  0.87579800  1
  O  O48  1  0.85706500  0.35506800  0.37601400  1
  O  O49  1  0.86377500  0.12311000  0.14531900  1
  O  O50  1  0.85962500  0.85907700  0.87148500  1
  O  O51  1  0.87911500  0.63806100  0.64058000  1
  O  O52  1  0.87108000  0.89875400  0.38827600  1
  O  O53  1  0.89007700  0.11922800  0.60621900  1
  O  O54  1  0.88533400  0.40221500  0.87558100  1
  O  O55  1  0.89823800  0.62551700  0.10784000  1
