# generated using pymatgen
data_Li6CoNi9O20
_symmetry_space_group_name_H-M   'P 1'
_cell_length_a   2.83093632
_cell_length_b   11.71624076
_cell_length_c   11.56409012
_cell_angle_alpha   114.16392732
_cell_angle_beta   82.99508141
_cell_angle_gamma   90.03248239
_symmetry_Int_Tables_number   1
_chemical_formula_structural   Li6CoNi9O20
_chemical_formula_sum   'Li6 Co1 Ni9 O20'
_cell_volume   346.82054520
_cell_formula_units_Z   1
loop_
 _symmetry_equiv_pos_site_id
 _symmetry_equiv_pos_as_xyz
  1  'x, y, z'
loop_
 _atom_site_type_symbol
 _atom_site_label
 _atom_site_symmetry_multiplicity
 _atom_site_fract_x
 _atom_site_fract_y
 _atom_site_fract_z
 _atom_site_occupancy
  Li  Li0  1  0.19282700  0.36809800  0.61463300  1
  Li  Li1  1  0.80151000  0.64839100  0.39626600  1
  Li  Li2  1  0.60717300  0.03190200  0.78536700  1
  Li  Li3  1  0.80813600  0.13590700  0.38261100  1
  Li  Li4  1  0.99186400  0.26409300  0.01738900  1
  Li  Li5  1  0.99849000  0.75160900  0.00373400  1
  Co  Co6  1  0.40000000  0.70000000  0.20000000  1
  Ni  Ni7  1  0.19760400  0.60004800  0.60433900  1
  Ni  Ni8  1  0.19926900  0.10295500  0.60065100  1
  Ni  Ni9  1  0.40000000  0.20000000  0.20000000  1
  Ni  Ni10  1  0.99911300  0.49963500  0.00153300  1
  Ni  Ni11  1  0.60073100  0.29704500  0.79934900  1
  Ni  Ni12  1  0.80178900  0.40177800  0.39611600  1
  Ni  Ni13  1  0.99821200  0.99822200  0.00388400  1
  Ni  Ni14  1  0.60239500  0.79995200  0.79566100  1
  Ni  Ni15  1  0.80088700  0.90036500  0.39846700  1
  O  O16  1  0.49082000  0.12515300  0.01707900  1
  O  O17  1  0.51394600  0.86842500  0.97365200  1
  O  O18  1  0.10063300  0.40117700  0.79992300  1
  O  O19  1  0.09902200  0.91104900  0.80261700  1
  O  O20  1  0.10579600  0.69054400  0.78837200  1
  O  O21  1  0.31123400  0.77705400  0.37999500  1
  O  O22  1  0.48876600  0.62294600  0.02000500  1
  O  O23  1  0.10612600  0.18213200  0.78795600  1
  O  O24  1  0.28703100  0.02949300  0.42386200  1
  O  O25  1  0.28605400  0.53157500  0.42634800  1
  O  O26  1  0.30918000  0.27484700  0.38292100  1
  O  O27  1  0.51296900  0.37050700  0.97613800  1
  O  O28  1  0.69387400  0.21786800  0.61204400  1
  O  O29  1  0.90108000  0.09302800  0.19745800  1
  O  O30  1  0.69420400  0.70945600  0.61162800  1
  O  O31  1  0.70097800  0.48895100  0.59738300  1
  O  O32  1  0.69936700  0.99882300  0.60007700  1
  O  O33  1  0.89938200  0.59325700  0.19848900  1
  O  O34  1  0.90061800  0.80674300  0.20151100  1
  O  O35  1  0.89892000  0.30697200  0.20254200  1
