# generated using pymatgen
data_Li11Co12(PO4)12
_symmetry_space_group_name_H-M   'P 1'
_cell_length_a   11.23531067
_cell_length_b   7.60263864
_cell_length_c   11.28862325
_cell_angle_alpha   75.00567980
_cell_angle_beta   110.76309822
_cell_angle_gamma   96.47419452
_symmetry_Int_Tables_number   1
_chemical_formula_structural   Li11Co12(PO4)12
_chemical_formula_sum   'Li11 Co12 P12 O48'
_cell_volume   870.69224353
_cell_formula_units_Z   1
loop_
 _symmetry_equiv_pos_site_id
 _symmetry_equiv_pos_as_xyz
  1  'x, y, z'
loop_
 _atom_site_type_symbol
 _atom_site_label
 _atom_site_symmetry_multiplicity
 _atom_site_fract_x
 _atom_site_fract_y
 _atom_site_fract_z
 _atom_site_occupancy
  Li  Li0  1  0.16666700  0.33333300  0.50000000  1
  Li  Li1  1  0.66666700  0.33333300  0.50000000  1
  Li  Li2  1  0.83330361  0.66634809  0.50022160  1
  Li  Li3  1  0.99983276  0.00028250  0.50006070  1
  Li  Li4  1  0.33350024  0.66638350  0.49993930  1
  Li  Li5  1  0.50002939  0.00031891  0.49977840  1
  Li  Li6  1  0.49871741  -0.00020265  0.99970752  1
  Li  Li7  1  0.66666700  0.33333300  0.00000000  1
  Li  Li8  1  0.33013942  0.66011344  0.99922236  1
  Li  Li9  1  0.83461559  0.66686865  0.00029248  1
  Li  Li10  1  0.00319358  0.00655356  0.00077764  1
  Co  Co11  1  0.33440593  0.41133654  0.78192524  1
  Co  Co12  1  0.67007491  0.08089523  0.77977291  1
  Co  Co13  1  0.00487063  0.74594754  0.78298346  1
  Co  Co14  1  0.65033998  0.59922122  0.72120130  1
  Co  Co15  1  0.31679479  0.93399285  0.72135110  1
  Co  Co16  1  0.98732231  0.26664252  0.72607744  1
  Co  Co17  1  0.34601169  0.40002348  0.27392256  1
  Co  Co18  1  0.68299302  0.06744578  0.27879870  1
  Co  Co19  1  0.01653821  0.73267415  0.27864890  1
  Co  Co20  1  0.99892707  0.25533046  0.21807476  1
  Co  Co21  1  0.66325809  0.58577077  0.22022709  1
  Co  Co22  1  0.32846237  0.92071946  0.21701654  1
  P  P23  1  0.19229279  0.05977583  0.90535806  1
  P  P24  1  0.52463239  0.72524192  0.90477618  1
  P  P25  1  0.85776609  0.39040477  0.90392803  1
  P  P26  1  0.42135117  0.32886337  0.59458606  1
  P  P27  1  0.75544760  0.99515440  0.59541967  1
  P  P28  1  0.08829347  0.66206700  0.59537303  1
  P  P29  1  0.24503953  0.00460000  0.40462697  1
  P  P30  1  0.57788540  0.67151160  0.40458033  1
  P  P31  1  0.91198183  0.33780363  0.40541394  1
  P  P32  1  0.80870161  0.94142508  0.09522382  1
  P  P33  1  0.47556791  0.27626223  0.09607197  1
  P  P34  1  0.14104121  0.60689117  0.09464194  1
  O  O35  1  0.13426055  0.62298818  0.95325216  1
  O  O36  1  0.80268770  0.94692347  0.95480199  1
  O  O37  1  0.46943227  0.28181366  0.95499776  1
  O  O38  1  0.95913134  0.28107628  0.89740373  1
  O  O39  1  0.29857890  0.95199361  0.90090621  1
  O  O40  1  0.63170625  0.61886528  0.90214733  1
  O  O41  1  0.38646274  0.65713478  0.83232505  1
  O  O42  1  0.52317761  0.93250641  0.83254987  1
  O  O43  1  0.85735125  0.59932886  0.83329843  1
  O  O44  1  0.05249572  0.99183441  0.83331269  1
  O  O45  1  0.71686872  0.32673856  0.83277727  1
  O  O46  1  0.19079798  0.26261624  0.82728956  1
  O  O47  1  0.46780476  0.48787174  0.66725271  1
  O  O48  1  0.13533209  0.82142542  0.66799498  1
  O  O49  1  0.80183300  0.15532925  0.66616763  1
  O  O50  1  0.99673732  0.54876123  0.66687529  1
  O  O51  1  0.66442652  0.87985450  0.66722503  1
  O  O52  1  0.33085318  0.21356091  0.66666215  1
  O  O53  1  0.53004618  0.21961993  0.59779252  1
  O  O54  1  0.86406731  0.88583720  0.59899292  1
  O  O55  1  0.19619552  0.55296429  0.59795224  1
  O  O56  1  0.33246430  0.91642276  0.54514925  1
  O  O57  1  0.99933411  0.25057802  0.54582628  1
  O  O58  1  0.66607782  0.58499122  0.54514444  1
  O  O59  1  0.66725618  0.08167578  0.45485556  1
  O  O60  1  0.00086870  0.75024324  0.45485075  1
  O  O61  1  0.33399889  0.41608798  0.45417372  1
  O  O62  1  0.46926569  0.78082980  0.40100708  1
  O  O63  1  0.80328782  0.44704707  0.40220748  1
  O  O64  1  0.13713748  0.11370271  0.40204776  1
  O  O65  1  0.86552824  0.17879526  0.33274729  1
  O  O66  1  0.19800091  0.84524158  0.33200502  1
  O  O67  1  0.00248082  0.45310609  0.33333785  1
  O  O68  1  0.66890648  0.78681250  0.33277497  1
  O  O69  1  0.53150000  0.51133675  0.33383237  1
  O  O70  1  0.33659568  0.11790577  0.33312471  1
  O  O71  1  0.28083828  0.67483259  0.16668731  1
  O  O72  1  0.14253502  0.40405076  0.17271044  1
  O  O73  1  0.94687026  0.00953122  0.16767495  1
  O  O74  1  0.81015539  0.73416059  0.16745013  1
  O  O75  1  0.61646528  0.33992844  0.16722273  1
  O  O76  1  0.47598175  0.06733714  0.16670157  1
  O  O77  1  0.37420266  0.38559072  0.10259627  1
  O  O78  1  0.70162675  0.04780172  0.09785267  1
  O  O79  1  0.03475410  0.71467239  0.09909379  1
  O  O80  1  0.53064530  0.71974353  0.04519801  1
  O  O81  1  0.19907245  0.04367882  0.04674784  1
  O  O82  1  0.86390073  0.38485334  0.04500224  1
