# generated using pymatgen
data_Li2TiFe3O8
_symmetry_space_group_name_H-M   'P 1'
_cell_length_a   8.40734462
_cell_length_b   8.61238021
_cell_length_c   8.39792502
_cell_angle_alpha   89.98774072
_cell_angle_beta   90.14909558
_cell_angle_gamma   89.93751043
_symmetry_Int_Tables_number   1
_chemical_formula_structural   Li2TiFe3O8
_chemical_formula_sum   'Li8 Ti4 Fe12 O32'
_cell_volume   608.06820915
_cell_formula_units_Z   4
loop_
 _symmetry_equiv_pos_site_id
 _symmetry_equiv_pos_as_xyz
  1  'x, y, z'
loop_
 _atom_site_type_symbol
 _atom_site_label
 _atom_site_symmetry_multiplicity
 _atom_site_fract_x
 _atom_site_fract_y
 _atom_site_fract_z
 _atom_site_occupancy
  Li  Li0  1  0.99784600  0.99940700  0.00065100  1
  Li  Li1  1  0.25273500  0.25114700  0.25214200  1
  Li  Li2  1  0.24960400  0.75059200  0.74985500  1
  Li  Li3  1  0.49899300  0.99924100  0.49811300  1
  Li  Li4  1  0.49880000  0.50002900  0.00381200  1
  Li  Li5  1  0.75292800  0.24974300  0.74864100  1
  Li  Li6  1  0.75077200  0.75048700  0.24749100  1
  Li  Li7  1  0.00059400  0.49831200  0.50235300  1
  Ti  Ti8  1  0.12406500  0.87341600  0.37543300  1
  Ti  Ti9  1  0.37226900  0.13318800  0.87243200  1
  Ti  Ti10  1  0.61888500  0.61864800  0.62585700  1
  Ti  Ti11  1  0.87894300  0.37065500  0.12249700  1
  Fe  Fe12  1  0.12526000  0.12340600  0.62330500  1
  Fe  Fe13  1  0.12317300  0.37649900  0.87206600  1
  Fe  Fe14  1  0.12585400  0.62644500  0.12575300  1
  Fe  Fe15  1  0.37387200  0.37352000  0.62172700  1
  Fe  Fe16  1  0.37474500  0.62601000  0.37369400  1
  Fe  Fe17  1  0.37430000  0.87334000  0.12533300  1
  Fe  Fe18  1  0.62691000  0.37760600  0.37143300  1
  Fe  Fe19  1  0.62384600  0.12818300  0.12256300  1
  Fe  Fe20  1  0.62455500  0.87606200  0.87660200  1
  Fe  Fe21  1  0.87666700  0.12289800  0.37607100  1
  Fe  Fe22  1  0.87407400  0.87780500  0.62686800  1
  Fe  Fe23  1  0.87126100  0.62267300  0.87557600  1
  O  O24  1  0.11619100  0.10641100  0.38198500  1
  O  O25  1  0.11501400  0.88516200  0.61121500  1
  O  O26  1  0.10362400  0.61520100  0.88482000  1
  O  O27  1  0.14397600  0.13139400  0.86810800  1
  O  O28  1  0.10925000  0.38455100  0.11506500  1
  O  O29  1  0.13795300  0.36036500  0.63500800  1
  O  O30  1  0.13266900  0.64147000  0.36565800  1
  O  O31  1  0.13284800  0.86496600  0.13915300  1
  O  O32  1  0.37081700  0.13510700  0.64194500  1
  O  O33  1  0.36557400  0.35870500  0.86656200  1
  O  O34  1  0.36289400  0.63836800  0.13388300  1
  O  O35  1  0.39100100  0.61420200  0.61961400  1
  O  O36  1  0.35969500  0.86416200  0.36651400  1
  O  O37  1  0.39073900  0.38876600  0.38516700  1
  O  O38  1  0.39123500  0.11424100  0.11206400  1
  O  O39  1  0.39675100  0.89076100  0.88227800  1
  O  O40  1  0.61754100  0.39206100  0.61416000  1
  O  O41  1  0.61859100  0.62016700  0.39443100  1
  O  O42  1  0.61630400  0.88573100  0.10269700  1
  O  O43  1  0.64089400  0.36815900  0.13481400  1
  O  O44  1  0.61234700  0.12057300  0.89326400  1
  O  O45  1  0.63562200  0.13446700  0.35257100  1
  O  O46  1  0.63152200  0.86104700  0.64818800  1
  O  O47  1  0.63987600  0.63074100  0.86292100  1
  O  O48  1  0.86473900  0.36431000  0.35912300  1
  O  O49  1  0.86017900  0.14133000  0.13067900  1
  O  O50  1  0.85040400  0.86523000  0.86896900  1
  O  O51  1  0.88842800  0.88462600  0.38429200  1
  O  O52  1  0.86119900  0.63674900  0.64431900  1
  O  O53  1  0.88486800  0.11237500  0.61340200  1
  O  O54  1  0.88456300  0.38179900  0.88912000  1
  O  O55  1  0.88174400  0.60762800  0.10788600  1
