# generated using pymatgen
data_Li3Mn5(CoO6)2
_symmetry_space_group_name_H-M   'P 1'
_cell_length_a   5.17537297
_cell_length_b   5.17537297
_cell_length_c   29.15132647
_cell_angle_alpha   89.66747584
_cell_angle_beta   89.66747584
_cell_angle_gamma   119.48229329
_symmetry_Int_Tables_number   1
_chemical_formula_structural   Li3Mn5(CoO6)2
_chemical_formula_sum   'Li9 Mn15 Co6 O36'
_cell_volume   679.65028745
_cell_formula_units_Z   3
loop_
 _symmetry_equiv_pos_site_id
 _symmetry_equiv_pos_as_xyz
  1  'x, y, z'
loop_
 _atom_site_type_symbol
 _atom_site_label
 _atom_site_symmetry_multiplicity
 _atom_site_fract_x
 _atom_site_fract_y
 _atom_site_fract_z
 _atom_site_occupancy
  Li  Li0  1  0.65920600  0.34224600  0.25130300  1
  Li  Li1  1  0.65775400  0.34079400  0.74869700  1
  Li  Li2  1  0.32892300  0.01069200  0.91758100  1
  Li  Li3  1  0.00355700  0.33118400  0.41439800  1
  Li  Li4  1  0.98930800  0.67107700  0.08241900  1
  Li  Li5  1  0.66881600  0.99644300  0.58560200  1
  Li  Li6  1  0.33538200  0.98602300  0.66662100  1
  Li  Li7  1  0.01397700  0.66461800  0.33337900  1
  Li  Li8  1  0.68008300  0.31991700  0.00000000  1
  Mn  Mn9  1  0.32525000  0.67475000  0.50000000  1
  Mn  Mn10  1  0.98675600  0.34445600  0.16670900  1
  Mn  Mn11  1  0.65554400  0.01324400  0.83329100  1
  Mn  Mn12  1  0.66435500  0.33564500  0.50000000  1
  Mn  Mn13  1  0.33116400  0.99994400  0.16675000  1
  Mn  Mn14  1  0.00860500  0.33518800  0.66644900  1
  Mn  Mn15  1  0.00005600  0.66883600  0.83325000  1
  Mn  Mn16  1  0.66481200  0.99139500  0.33355100  1
  Mn  Mn17  1  0.34203200  0.33732500  0.58492400  1
  Mn  Mn18  1  0.33902700  0.66097300  0.00000000  1
  Mn  Mn19  1  0.01752000  0.00331000  0.74798400  1
  Mn  Mn20  1  0.99669000  0.98248000  0.25201600  1
  Mn  Mn21  1  0.66267500  0.65796800  0.41507600  1
  Mn  Mn22  1  0.66818200  0.65378100  0.91855600  1
  Mn  Mn23  1  0.34621900  0.33181800  0.08144400  1
  Co  Co24  1  0.67885200  0.65594300  0.66641300  1
  Co  Co25  1  0.34405700  0.32114800  0.33358700  1
  Co  Co26  1  0.00748700  0.99251300  0.00000000  1
  Co  Co27  1  0.99844700  0.00155300  0.50000000  1
  Co  Co28  1  0.65599600  0.67449400  0.16666800  1
  Co  Co29  1  0.32550600  0.34400400  0.83333200  1
  O  O30  1  0.62927500  0.65092400  0.54229300  1
  O  O31  1  0.95959500  0.64233000  0.46043000  1
  O  O32  1  0.34907600  0.37072500  0.45770700  1
  O  O33  1  0.97227300  0.64051500  0.70199600  1
  O  O34  1  0.29620900  0.28316400  0.20745200  1
  O  O35  1  0.66369000  0.36855200  0.12452500  1
  O  O36  1  0.04732700  0.03543700  0.12603800  1
  O  O37  1  0.65672000  0.31814100  0.36804500  1
  O  O38  1  0.68185900  0.34328000  0.63195500  1
  O  O39  1  0.96456300  0.95267300  0.87396200  1
  O  O40  1  0.35919600  0.63786500  0.63023900  1
  O  O41  1  0.33385600  0.03796500  0.79130200  1
  O  O42  1  0.71683600  0.70379100  0.79254800  1
  O  O43  1  0.35767000  0.04040500  0.53957000  1
  O  O44  1  0.01880500  0.35040100  0.53602300  1
  O  O45  1  0.29837500  0.96831200  0.03582800  1
  O  O46  1  0.35948500  0.02772700  0.29800400  1
  O  O47  1  0.00035800  0.27942700  0.29655600  1
  O  O48  1  0.96203500  0.66614400  0.20869800  1
  O  O49  1  0.64959900  0.98119500  0.46397700  1
  O  O50  1  0.30187000  0.30590200  0.70658000  1
  O  O51  1  0.67344500  0.02894000  0.20177000  1
  O  O52  1  0.72057300  0.99964200  0.70344400  1
  O  O53  1  0.03168800  0.70162500  0.96417200  1
  O  O54  1  0.67047500  0.95446700  0.96326900  1
  O  O55  1  0.01850000  0.05052300  0.62490800  1
  O  O56  1  0.63144800  0.33631000  0.87547500  1
  O  O57  1  0.30161100  0.65724900  0.13150900  1
  O  O58  1  0.94947700  0.98150000  0.37509200  1
  O  O59  1  0.34275100  0.69838900  0.86849100  1
  O  O60  1  0.36213500  0.64080400  0.36976100  1
  O  O61  1  0.69409800  0.69813000  0.29342000  1
  O  O62  1  0.97106000  0.32655500  0.79823000  1
  O  O63  1  0.63049800  0.63466600  0.04020800  1
  O  O64  1  0.04553300  0.32952500  0.03673100  1
  O  O65  1  0.36533400  0.36950200  0.95979200  1
