# generated using pymatgen
data_Li4Co2C4SO16
_symmetry_space_group_name_H-M   'P 1'
_cell_length_a   9.49784630
_cell_length_b   9.50401463
_cell_length_c   9.49784630
_cell_angle_alpha   60.77474196
_cell_angle_beta   88.68913181
_cell_angle_gamma   119.22525804
_symmetry_Int_Tables_number   1
_chemical_formula_structural   Li4Co2C4SO16
_chemical_formula_sum   'Li8 Co4 C8 S2 O32'
_cell_volume   613.35145929
_cell_formula_units_Z   2
loop_
 _symmetry_equiv_pos_site_id
 _symmetry_equiv_pos_as_xyz
  1  'x, y, z'
loop_
 _atom_site_type_symbol
 _atom_site_label
 _atom_site_symmetry_multiplicity
 _atom_site_fract_x
 _atom_site_fract_y
 _atom_site_fract_z
 _atom_site_occupancy
  Li  Li0  1  0.90866767  0.25000000  0.34133233  1
  Li  Li1  1  0.66407846  0.75000000  0.08592154  1
  Li  Li2  1  0.34260782  0.25000000  0.34260782  1
  Li  Li3  1  0.90750176  0.81500351  0.34249824  1
  Li  Li4  1  0.90739218  0.25000000  0.90739218  1
  Li  Li5  1  0.34133233  0.25000000  0.90866767  1
  Li  Li6  1  0.34249824  0.68499649  0.90750176  1
  Li  Li7  1  0.08592154  0.75000000  0.66407846  1
  Co  Co8  1  0.49847191  0.00181197  0.99980533  1
  Co  Co9  1  0.50334006  0.00181197  0.49838270  1
  Co  Co10  1  0.49838270  0.49818803  0.50334006  1
  Co  Co11  1  0.99980533  0.49818803  0.49847191  1
  C  C12  1  0.71697157  0.06500924  0.71554947  1
  C  C13  1  0.71944129  0.43499076  0.34803768  1
  C  C14  1  0.34803768  0.06500924  0.71944129  1
  C  C15  1  0.71554947  0.43499076  0.71697157  1
  C  C16  1  0.65806504  0.93747791  0.27613597  1
  C  C17  1  0.28638512  0.56252209  0.27941287  1
  C  C18  1  0.27941287  0.93747791  0.28638512  1
  C  C19  1  0.27613597  0.56252209  0.65806504  1
  S  S20  1  0.12500000  0.25000000  0.12500000  1
  S  S21  1  0.87500000  0.75000000  0.87500000  1
  O  O22  1  0.65822266  0.05561448  0.12870933  1
  O  O23  1  0.85696978  0.21096491  0.58670196  1
  O  O24  1  0.70233213  0.28903509  0.35399612  1
  O  O25  1  0.39739282  0.05561448  0.31567619  1
  O  O26  1  0.85912840  0.55853357  0.35306493  1
  O  O27  1  0.31745429  0.37717847  0.06021329  1
  O  O28  1  0.06260824  0.12282153  0.05972518  1
  O  O29  1  0.59591828  0.46110141  0.33458909  1
  O  O30  1  0.70430950  0.03889859  0.86518313  1
  O  O31  1  0.33458909  0.03889859  0.59591828  1
  O  O32  1  0.86518313  0.46110141  0.70430950  1
  O  O33  1  0.06021329  0.12282153  0.31745429  1
  O  O34  1  0.05972518  0.37717847  0.06260824  1
  O  O35  1  0.66313886  0.79324135  0.29856764  1
  O  O36  1  0.40819101  0.70675865  0.13010249  1
  O  O37  1  0.69940516  0.55853357  0.58840151  1
  O  O38  1  0.31567619  0.44438552  0.39739282  1
  O  O39  1  0.35399612  0.21096491  0.70233213  1
  O  O40  1  0.58670196  0.28903509  0.85696978  1
  O  O41  1  0.94317240  0.62646979  0.93247250  1
  O  O42  1  0.94105770  0.87353021  0.68329740  1
  O  O43  1  0.13807570  0.53255000  0.30682178  1
  O  O44  1  0.66062822  0.96745000  0.39447430  1
  O  O45  1  0.30682178  0.96745000  0.13807570  1
  O  O46  1  0.39447430  0.53255000  0.66062822  1
  O  O47  1  0.93247250  0.87353021  0.94317240  1
  O  O48  1  0.68329740  0.62646979  0.94105770  1
  O  O49  1  0.12870933  0.44438552  0.65822266  1
  O  O50  1  0.58840151  0.94146643  0.69940516  1
  O  O51  1  0.29856764  0.70675865  0.66313886  1
  O  O52  1  0.13010249  0.79324135  0.40819101  1
  O  O53  1  0.35306493  0.94146643  0.85912840  1
