# generated using pymatgen
data_LiNi(SO4)2
_symmetry_space_group_name_H-M   'P 1'
_cell_length_a   9.02793318
_cell_length_b   8.98515330
_cell_length_c   9.03036809
_cell_angle_alpha   55.94758214
_cell_angle_beta   55.84087217
_cell_angle_gamma   55.75874687
_symmetry_Int_Tables_number   1
_chemical_formula_structural   LiNi(SO4)2
_chemical_formula_sum   'Li3 Ni3 S6 O24'
_cell_volume   468.12246113
_cell_formula_units_Z   3
loop_
 _symmetry_equiv_pos_site_id
 _symmetry_equiv_pos_as_xyz
  1  'x, y, z'
loop_
 _atom_site_type_symbol
 _atom_site_label
 _atom_site_symmetry_multiplicity
 _atom_site_fract_x
 _atom_site_fract_y
 _atom_site_fract_z
 _atom_site_occupancy
  Li  Li0  1  0.16163500  0.13225600  0.15359800  1
  Li  Li1  1  0.18096600  0.41558200  0.77155900  1
  Li  Li2  1  0.77246300  0.17966800  0.41785600  1
  Ni  Ni3  1  0.35507200  0.35637400  0.35191000  1
  Ni  Ni4  1  0.64147800  0.64432000  0.64551900  1
  Ni  Ni5  1  0.84733700  0.84997800  0.84980200  1
  S  S6  1  0.03747000  0.74454100  0.46621000  1
  S  S7  1  0.46362300  0.04041200  0.74644100  1
  S  S8  1  0.74833600  0.46780200  0.03627300  1
  S  S9  1  0.24726000  0.54963400  0.95600000  1
  S  S10  1  0.54587200  0.95666200  0.24883400  1
  S  S11  1  0.95646000  0.24694800  0.54951600  1
  O  O12  1  0.10532200  0.29698200  0.51476200  1
  O  O13  1  0.29867900  0.51309100  0.10435600  1
  O  O14  1  0.00152600  0.95087200  0.34812700  1
  O  O15  1  0.52291700  0.10425100  0.29603100  1
  O  O16  1  0.02822500  0.70298300  0.65897400  1
  O  O17  1  0.23345300  0.62008900  0.37966100  1
  O  O18  1  0.37815400  0.24245500  0.61948800  1
  O  O19  1  0.34078400  0.01293400  0.94700200  1
  O  O20  1  0.63082200  0.37295000  0.23656400  1
  O  O21  1  0.04352400  0.68359200  0.98659300  1
  O  O22  1  0.26838900  0.36902000  0.96142500  1
  O  O23  1  0.35882200  0.97359800  0.27866100  1
  O  O24  1  0.65757600  0.02823200  0.70394800  1
  O  O25  1  0.71343400  0.65567100  0.02729800  1
  O  O26  1  0.95448900  0.34270100  0.00059200  1
  O  O27  1  0.37421700  0.63472300  0.76018300  1
  O  O28  1  0.67649900  0.98779400  0.04480200  1
  O  O29  1  0.63102300  0.75960500  0.37536900  1
  O  O30  1  0.75940800  0.37480900  0.63452200  1
  O  O31  1  0.96235900  0.26947400  0.36907000  1
  O  O32  1  0.48889500  0.90129700  0.68824000  1
  O  O33  1  0.98529600  0.04321600  0.68282400  1
  O  O34  1  0.68836400  0.49407700  0.89909200  1
  O  O35  1  0.89324800  0.69161100  0.49410100  1
