# generated using pymatgen
data_LiV4OF11
_symmetry_space_group_name_H-M   'P 1'
_cell_length_a   5.19273180
_cell_length_b   5.53847153
_cell_length_c   17.18926987
_cell_angle_alpha   91.39136983
_cell_angle_beta   98.67518425
_cell_angle_gamma   62.04039803
_symmetry_Int_Tables_number   1
_chemical_formula_structural   LiV4OF11
_chemical_formula_sum   'Li2 V8 O2 F22'
_cell_volume   431.05091938
_cell_formula_units_Z   2
loop_
 _symmetry_equiv_pos_site_id
 _symmetry_equiv_pos_as_xyz
  1  'x, y, z'
loop_
 _atom_site_type_symbol
 _atom_site_label
 _atom_site_symmetry_multiplicity
 _atom_site_fract_x
 _atom_site_fract_y
 _atom_site_fract_z
 _atom_site_occupancy
  Li  Li0  1  0.69740567  0.56436443  0.95739265  1
  Li  Li1  1  0.55448872  0.30915606  0.41770114  1
  V  V2  1  0.99629807  0.50769155  0.50012700  1
  V  V3  1  0.25401043  0.36715073  0.87478726  1
  V  V4  1  0.48421015  0.24246565  0.25078777  1
  V  V5  1  0.50375013  0.75050749  0.74951937  1
  V  V6  1  0.75453789  0.12448145  0.62547181  1
  V  V7  1  0.03781839  0.97545962  0.00687634  1
  V  V8  1  0.25591580  0.89909031  0.36825495  1
  V  V9  1  0.72630032  0.63285561  0.12428921  1
  O  O10  1  0.43065492  0.10164134  0.34438692  1
  O  O11  1  0.43905673  0.77293501  0.03051451  1
  F  F12  1  0.05279472  0.16665889  0.90725521  1
  F  F13  1  0.00113463  0.67009935  0.93486715  1
  F  F14  1  0.98627177  0.20498042  0.43994154  1
  F  F15  1  0.48792719  0.06521808  0.80999301  1
  F  F16  1  0.07220146  0.95939028  0.71792806  1
  F  F17  1  0.05273525  0.47248936  0.21490873  1
  F  F18  1  0.08721098  0.65488408  0.41390905  1
  F  F19  1  0.57815817  0.21964368  0.96101129  1
  F  F20  1  0.44913693  0.59509918  0.84611217  1
  F  F21  1  0.44753120  0.28014703  0.52887406  1
  F  F22  1  0.51783448  0.43737531  0.68746619  1
  F  F23  1  0.50343424  0.54122068  0.32075359  1
  F  F24  1  0.56255184  0.70816698  0.46777338  1
  F  F25  1  0.56396335  0.91487996  0.65703961  1
  F  F26  1  0.55988511  0.40480986  0.16045513  1
  F  F27  1  0.92866832  0.02292283  0.28325558  1
  F  F28  1  0.93943150  0.33613116  0.59240453  1
  F  F29  1  0.93333160  0.53837049  0.78253858  1
  F  F30  1  0.48448800  0.93854285  0.18748849  1
  F  F31  1  0.97553765  0.33328323  0.05429407  1
  F  F32  1  0.99193501  0.81091939  0.56459583  1
  F  F33  1  0.91955241  0.85193066  0.09202583  1
