# generated using pymatgen
data_Li3MnV(PO4)3
_symmetry_space_group_name_H-M   'P 1'
_cell_length_a   9.93599482
_cell_length_b   9.87170679
_cell_length_c   9.87170670
_cell_angle_alpha   88.39746134
_cell_angle_beta   86.55444574
_cell_angle_gamma   86.55445081
_symmetry_Int_Tables_number   1
_chemical_formula_structural   Li3MnV(PO4)3
_chemical_formula_sum   'Li12 Mn4 V4 P12 O48'
_cell_volume   964.48297317
_cell_formula_units_Z   4
loop_
 _symmetry_equiv_pos_site_id
 _symmetry_equiv_pos_as_xyz
  1  'x, y, z'
loop_
 _atom_site_type_symbol
 _atom_site_label
 _atom_site_symmetry_multiplicity
 _atom_site_fract_x
 _atom_site_fract_y
 _atom_site_fract_z
 _atom_site_occupancy
  Li  Li0  1  0.00703682  0.05034956  0.97869369  1
  Li  Li1  1  0.07006539  0.73724612  0.13997664  1
  Li  Li2  1  0.13796249  0.07506194  0.72834141  1
  Li  Li3  1  0.22822384  0.56210301  0.65392281  1
  Li  Li4  1  0.27177616  0.84607719  0.93789699  1
  Li  Li5  1  0.36203751  0.77165859  0.42493806  1
  Li  Li6  1  0.42993461  0.36002336  0.76275388  1
  Li  Li7  1  0.49296318  0.52130631  0.44965044  1
  Li  Li8  1  0.64120503  0.23355974  0.56166098  1
  Li  Li9  1  0.76747406  0.45649763  0.36482231  1
  Li  Li10  1  0.73252594  0.13517769  0.04350237  1
  Li  Li11  1  0.85879497  0.93833902  0.26644026  1
  Mn  Mn12  1  0.25000000  0.47327846  0.02672154  1
  Mn  Mn13  1  0.52811244  0.96543189  0.73695082  1
  Mn  Mn14  1  0.75000000  0.74638014  0.75361986  1
  Mn  Mn15  1  0.97188756  0.76304918  0.53456811  1
  V  V16  1  0.03126649  0.25832053  0.47312856  1
  V  V17  1  0.25000000  0.25302008  0.24697992  1
  V  V18  1  0.46873351  0.02687144  0.24167947  1
  V  V19  1  0.75000000  0.52816734  0.97183266  1
  P  P20  1  0.04850147  0.66699128  0.85203661  1
  P  P21  1  0.14760217  0.95648112  0.33111520  1
  P  P22  1  0.17102770  0.55342907  0.36294534  1
  P  P23  1  0.32897230  0.13705466  0.94657093  1
  P  P24  1  0.35239783  0.16888480  0.54351888  1
  P  P25  1  0.45149853  0.64796339  0.83300872  1
  P  P26  1  0.54939287  0.34643737  0.18060423  1
  P  P27  1  0.64367314  0.82417335  0.44886546  1
  P  P28  1  0.67486327  0.84458804  0.04521968  1
  P  P29  1  0.82513673  0.45478032  0.65541196  1
  P  P30  1  0.85632686  0.05113454  0.67582665  1
  P  P31  1  0.95060713  0.31939577  0.15356263  1
  O  O32  1  0.03208105  0.61854141  0.41820663  1
  O  O33  1  0.05578343  0.90736990  0.22587667  1
  O  O34  1  0.10752829  0.32233313  0.12318249  1
  O  O35  1  0.12280311  0.11717131  0.33308340  1
  O  O36  1  0.08199159  0.70216838  0.69920262  1
  O  O37  1  0.11408982  0.89425422  0.47331481  1
  O  O38  1  0.09287228  0.77519545  0.94630823  1
  O  O39  1  0.11544045  0.52583892  0.87811057  1
  O  O40  1  0.16584977  0.39339045  0.38252435  1
  O  O41  1  0.18515329  0.59106562  0.21144774  1
  O  O42  1  0.19889024  0.20272301  0.58033125  1
  O  O43  1  0.21428155  0.05099755  0.90560002  1
  O  O44  1  0.33415023  0.11747565  0.10660955  1
  O  O45  1  0.28571845  0.59439998  0.44900245  1
  O  O46  1  0.30110976  0.91966875  0.29727699  1
  O  O47  1  0.31484671  0.28855226  0.90893438  1
  O  O48  1  0.37719689  0.16691660  0.38282869  1
  O  O49  1  0.39247171  0.37681751  0.17766687  1
  O  O50  1  0.38591018  0.02668519  0.60574578  1
  O  O51  1  0.38455955  0.62188943  0.97416108  1
  O  O52  1  0.40712772  0.55369177  0.72480455  1
  O  O53  1  0.44421657  0.27412333  0.59263010  1
  O  O54  1  0.41800841  0.80079738  0.79783162  1
  O  O55  1  0.46791895  0.08179337  0.88145859  1
  O  O56  1  0.53371591  0.88504631  0.10721782  1
  O  O57  1  0.58099319  0.18861057  0.17423254  1
  O  O58  1  0.59787557  0.40874401  0.30657484  1
  O  O59  1  0.55945028  0.70750253  0.41476335  1
  O  O60  1  0.61688422  0.40667992  0.04643818  1
  O  O61  1  0.59214968  0.96023713  0.38149099  1
  O  O62  1  0.61137453  0.62036215  0.83846180  1
  O  O63  1  0.62317942  0.84066317  0.60996319  1
  O  O64  1  0.70220086  0.08814605  0.69382116  1
  O  O65  1  0.70472426  0.68725898  0.07364995  1
  O  O66  1  0.71710028  0.40527690  0.56845797  1
  O  O67  1  0.67495663  0.87174816  0.88555660  1
  O  O68  1  0.78289972  0.93154203  0.09472310  1
  O  O69  1  0.79527574  0.42635005  0.81274102  1
  O  O70  1  0.79779914  0.80617884  0.41185395  1
  O  O71  1  0.82504337  0.61444340  0.62825184  1
  O  O72  1  0.88311578  0.45356182  0.09332008  1
  O  O73  1  0.90212443  0.19342516  0.09125599  1
  O  O74  1  0.90785032  0.11850901  0.53976287  1
  O  O75  1  0.91900681  0.32576746  0.31138943  1
  O  O76  1  0.87682058  0.89003681  0.65933683  1
  O  O77  1  0.94054972  0.08523665  0.79249747  1
  O  O78  1  0.88862547  0.66153820  0.87963785  1
  O  O79  1  0.96628409  0.39278218  0.61495369  1
