# generated using pymatgen
data_Li32Ti11Cr5O48
_symmetry_space_group_name_H-M   'P 1'
_cell_length_a   5.07931625
_cell_length_b   5.07436697
_cell_length_c   38.68112824
_cell_angle_alpha   88.94991333
_cell_angle_beta   91.14748303
_cell_angle_gamma   60.12249583
_symmetry_Int_Tables_number   1
_chemical_formula_structural   Li32Ti11Cr5O48
_chemical_formula_sum   'Li32 Ti11 Cr5 O48'
_cell_volume   863.83932468
_cell_formula_units_Z   1
loop_
 _symmetry_equiv_pos_site_id
 _symmetry_equiv_pos_as_xyz
  1  'x, y, z'
loop_
 _atom_site_type_symbol
 _atom_site_label
 _atom_site_symmetry_multiplicity
 _atom_site_fract_x
 _atom_site_fract_y
 _atom_site_fract_z
 _atom_site_occupancy
  Li  Li0  1  0.09067800  0.08667200  0.24977900  1
  Li  Li1  1  0.00328500  0.50302700  0.00011600  1
  Li  Li2  1  0.06065000  0.44115900  0.18746900  1
  Li  Li3  1  0.12324600  0.37282500  0.37501900  1
  Li  Li4  1  0.19062200  0.31100900  0.56249800  1
  Li  Li5  1  0.25010400  0.24642400  0.75019500  1
  Li  Li6  1  0.31241000  0.18763100  0.93747400  1
  Li  Li7  1  0.03811600  0.78160200  0.12496100  1
  Li  Li8  1  0.37806900  0.12523900  0.12496800  1
  Li  Li9  1  0.16638800  0.65949800  0.50019300  1
  Li  Li10  1  0.28183800  0.54275900  0.87462300  1
  Li  Li11  1  0.43753900  0.06246400  0.31245000  1
  Li  Li12  1  0.49514700  0.99762600  0.50007800  1
  Li  Li13  1  0.40924200  0.41502500  0.24984000  1
  Li  Li14  1  0.53212000  0.29028200  0.62473100  1
  Li  Li15  1  0.22088700  0.95952700  0.62505200  1
  Li  Li16  1  0.33746200  0.83741300  0.00012300  1
  Li  Li17  1  0.65948100  0.16008600  0.00017000  1
  Li  Li18  1  0.78758300  0.03590900  0.37499000  1
  Li  Li19  1  0.46375800  0.71595000  0.37510400  1
  Li  Li20  1  0.58429800  0.59597400  0.75006500  1
  Li  Li21  1  0.56254700  0.93766400  0.68752300  1
  Li  Li22  1  0.70921900  0.46818900  0.12498000  1
  Li  Li23  1  0.83735600  0.34183600  0.50000100  1
  Li  Li24  1  0.62417300  0.87257500  0.87485100  1
  Li  Li25  1  0.96840800  0.20918900  0.87497400  1
  Li  Li26  1  0.68956300  0.81435200  0.06251300  1
  Li  Li27  1  0.74910900  0.74764400  0.24983600  1
  Li  Li28  1  0.81247500  0.68704600  0.43753100  1
  Li  Li29  1  0.87173900  0.62491400  0.62491100  1
  Li  Li30  1  0.93598300  0.56560600  0.81251500  1
  Li  Li31  1  0.91529800  0.90716400  0.75034300  1
  Ti  Ti32  1  0.01762300  0.14343200  0.06255900  1
  Ti  Ti33  1  0.10516100  0.72985300  0.31245600  1
  Ti  Ti34  1  0.22970000  0.60463000  0.68753600  1
  Ti  Ti35  1  0.47967500  0.35487400  0.43744800  1
  Ti  Ti36  1  0.60692500  0.22575400  0.81264500  1
  Ti  Ti37  1  0.73241700  0.09990000  0.18759800  1
  Ti  Ti38  1  0.64486100  0.51963400  0.93753500  1
  Ti  Ti39  1  0.76989600  0.39475400  0.31242700  1
  Ti  Ti40  1  0.89439400  0.26974700  0.68754200  1
  Ti  Ti41  1  0.85104100  0.98191100  0.56240400  1
  Ti  Ti42  1  0.97957400  0.85518900  0.93750600  1
  Cr  Cr43  1  0.14368200  0.01806700  0.43758900  1
  Cr  Cr44  1  0.35678200  0.48119900  0.06252800  1
  Cr  Cr45  1  0.26830800  0.89845000  0.81248900  1
  Cr  Cr46  1  0.39336700  0.77320900  0.18725200  1
  Cr  Cr47  1  0.52335700  0.64340500  0.56247900  1
  O  O48  1  0.09074100  0.05387900  0.34074700  1
  O  O49  1  0.06463700  0.08243300  0.15934000  1
  O  O50  1  0.07160500  0.42805300  0.28346700  1
  O  O51  1  0.19618600  0.30369000  0.65857400  1
  O  O52  1  0.05840800  0.44688600  0.09094800  1
  O  O53  1  0.17813200  0.31914900  0.46628000  1
  O  O54  1  0.30166900  0.18937600  0.84111600  1
  O  O55  1  0.32214000  0.18272200  0.03418900  1
  O  O56  1  0.44194200  0.05311100  0.40890000  1
  O  O57  1  0.06648900  0.78628300  0.21598400  1
  O  O58  1  0.42623100  0.06410500  0.21600500  1
  O  O59  1  0.20214300  0.65915000  0.59044300  1
  O  O60  1  0.32103700  0.53415100  0.96576400  1
  O  O61  1  0.03172500  0.82553600  0.03396100  1
  O  O62  1  0.15986800  0.70103400  0.40935300  1
  O  O63  1  0.28438400  0.57678800  0.78462100  1
  O  O64  1  0.21562800  0.92877900  0.71596600  1
  O  O65  1  0.18398000  0.96079400  0.53473700  1
  O  O66  1  0.30333900  0.84122300  0.90910300  1
  O  O67  1  0.44645400  0.40930100  0.34089800  1
  O  O68  1  0.57152300  0.28474400  0.71604500  1
  O  O69  1  0.40909700  0.45140400  0.15962400  1
  O  O70  1  0.53636800  0.31721300  0.53392800  1
  O  O71  1  0.65931600  0.19639300  0.90898000  1
  O  O72  1  0.34277600  0.79374300  0.09061700  1
  O  O73  1  0.46448800  0.68016100  0.46571300  1
  O  O74  1  0.58612600  0.55885900  0.84038500  1
  O  O75  1  0.42871000  0.71569000  0.28410600  1
  O  O76  1  0.55347100  0.59072600  0.65921900  1
  O  O77  1  0.70115700  0.15729000  0.09118700  1
  O  O78  1  0.82802100  0.03466600  0.46570600  1
  O  O79  1  0.78384500  0.07148400  0.28397400  1
  O  O80  1  0.71062400  0.43400100  0.21527900  1
  O  O81  1  0.83312600  0.31357700  0.59054700  1
  O  O82  1  0.96498700  0.17901900  0.96594300  1
  O  O83  1  0.66875400  0.46755100  0.03441700  1
  O  O84  1  0.80392000  0.33973800  0.40930300  1
  O  O85  1  0.57463300  0.92937000  0.78345600  1
  O  O86  1  0.93862400  0.20823000  0.78456700  1
  O  O87  1  0.55485200  0.94968200  0.59160800  1
  O  O88  1  0.67827400  0.82169500  0.96643800  1
  O  O89  1  0.69967800  0.80476200  0.15820700  1
  O  O90  1  0.81425000  0.67635700  0.53391100  1
  O  O91  1  0.94628000  0.55329900  0.90846100  1
  O  O92  1  0.80348900  0.69691800  0.34141600  1
  O  O93  1  0.92886500  0.57147900  0.71658300  1
  O  O94  1  0.94267800  0.91088100  0.84101400  1
  O  O95  1  0.90977400  0.94633800  0.65909900  1
