# generated using pymatgen
data_Li7Mn8(BO3)8
_symmetry_space_group_name_H-M   'P 1'
_cell_length_a   5.19167977
_cell_length_b   9.02484220
_cell_length_c   11.19998135
_cell_angle_alpha   111.76848112
_cell_angle_beta   102.78585076
_cell_angle_gamma   89.21406038
_symmetry_Int_Tables_number   1
_chemical_formula_structural   Li7Mn8(BO3)8
_chemical_formula_sum   'Li7 Mn8 B8 O24'
_cell_volume   473.90412047
_cell_formula_units_Z   1
loop_
 _symmetry_equiv_pos_site_id
 _symmetry_equiv_pos_as_xyz
  1  'x, y, z'
loop_
 _atom_site_type_symbol
 _atom_site_label
 _atom_site_symmetry_multiplicity
 _atom_site_fract_x
 _atom_site_fract_y
 _atom_site_fract_z
 _atom_site_occupancy
  Li  Li0  1  0.97005955  0.96787327  0.09159782  1
  Li  Li1  1  0.72799372  0.75674661  0.33600022  1
  Li  Li2  1  0.46933517  0.45880825  0.06791577  1
  Li  Li3  1  0.70796072  0.71317839  0.58722488  1
  Li  Li4  1  0.24634910  0.26598772  0.35440522  1
  Li  Li5  1  0.20799950  0.21339034  0.59673902  1
  Li  Li6  1  0.02462660  0.99554130  0.84058130  1
  Mn  Mn7  1  0.75057141  0.43637302  0.36596074  1
  Mn  Mn8  1  0.72901867  0.05730093  0.62105351  1
  Mn  Mn9  1  0.47033280  0.14571564  0.11666982  1
  Mn  Mn10  1  0.53003507  0.83656650  0.86888274  1
  Mn  Mn11  1  0.25818698  0.93867716  0.37242281  1
  Mn  Mn12  1  0.98329783  0.64669485  0.12190385  1
  Mn  Mn13  1  0.22912969  0.55075264  0.62428722  1
  Mn  Mn14  1  0.01045993  0.35093042  0.86450426  1
  B  B15  1  0.97055926  0.31619080  0.12542034  1
  B  B16  1  0.76482678  0.10676527  0.37393050  1
  B  B17  1  0.47608781  0.81240868  0.12522589  1
  B  B18  1  0.71907993  0.38607119  0.61456994  1
  B  B19  1  0.52308563  0.18040639  0.87186546  1
  B  B20  1  0.26124627  0.60863688  0.37315581  1
  B  B21  1  0.23645653  0.88906968  0.62895973  1
  B  B22  1  0.04166267  0.69737285  0.88427918  1
  O  O23  1  0.98042555  0.88441634  0.64167087  1
  O  O24  1  0.72226916  0.34787356  0.15332382  1
  O  O25  1  0.89506224  0.28730945  0.65772926  1
  O  O26  1  0.58898672  0.91253137  0.07916746  1
  O  O27  1  0.60304264  0.68468189  0.14103139  1
  O  O28  1  0.82135835  0.50423747  0.58230497  1
  O  O29  1  0.94590015  0.58967017  0.92928524  1
  O  O30  1  0.92792915  0.83983777  0.89941429  1
  O  O31  1  0.66466469  0.98686786  0.40554617  1
  O  O32  1  0.59482269  0.20527432  0.32998067  1
  O  O33  1  0.76525976  0.15073288  0.83548873  1
  O  O34  1  0.52921909  0.63350576  0.39122678  1
  O  O35  1  0.45537645  0.36272228  0.60132159  1
  O  O36  1  0.23189782  0.84495984  0.15886109  1
  O  O37  1  0.41140018  0.78359241  0.66146764  1
  O  O38  1  0.32430496  0.99884555  0.58390177  1
  O  O39  1  0.09283454  0.41918391  0.08419000  1
  O  O40  1  0.09288281  0.18716148  0.14099864  1
  O  O41  1  0.40355592  0.31686906  0.87967557  1
  O  O42  1  0.40601749  0.06576390  0.90465566  1
  O  O43  1  0.15720363  0.49286658  0.40584817  1
  O  O44  1  0.08884791  0.70519312  0.32436866  1
  O  O45  1  0.25575548  0.66109349  0.82885940  1
  O  O46  1  0.03225200  0.12759778  0.38909715  1
