# generated using pymatgen
data_Na5LiV6O18
_symmetry_space_group_name_H-M   'P 1'
_cell_length_a   10.34680100
_cell_length_b   11.18846108
_cell_length_c   8.09750063
_cell_angle_alpha   102.72343536
_cell_angle_beta   110.46318946
_cell_angle_gamma   90.39141419
_symmetry_Int_Tables_number   1
_chemical_formula_structural   Na5LiV6O18
_chemical_formula_sum   'Na10 Li2 V12 O36'
_cell_volume   853.07460676
_cell_formula_units_Z   2
loop_
 _symmetry_equiv_pos_site_id
 _symmetry_equiv_pos_as_xyz
  1  'x, y, z'
loop_
 _atom_site_type_symbol
 _atom_site_label
 _atom_site_symmetry_multiplicity
 _atom_site_fract_x
 _atom_site_fract_y
 _atom_site_fract_z
 _atom_site_occupancy
  Na  Na0  1  0.13949600  0.05484000  0.94469800  1
  Na  Na1  1  0.44259900  0.15372100  0.84637100  1
  Na  Na2  1  0.89092400  0.17990400  0.82051900  1
  Na  Na3  1  0.47276900  0.38786100  0.61260400  1
  Na  Na4  1  0.22302800  0.51308600  0.48757600  1
  Na  Na5  1  0.52617200  0.61185200  0.38809200  1
  Na  Na6  1  0.77728500  0.48669900  0.51360200  1
  Na  Na7  1  0.10922000  0.82000000  0.17956400  1
  Na  Na8  1  0.80766600  0.72233600  0.27769700  1
  Na  Na9  1  0.55732000  0.84640400  0.15253100  1
  Li  Li10  1  0.18982900  0.28006700  0.71990200  1
  Li  Li11  1  0.85634300  0.94694400  0.05321500  1
  V  V12  1  0.35760700  0.73731900  0.84101300  1
  V  V13  1  0.02161000  0.82316600  0.59873600  1
  V  V14  1  0.68904900  0.48959600  0.93177500  1
  V  V15  1  0.64824700  0.84787400  0.73908400  1
  V  V16  1  0.97562900  0.59206700  0.82495100  1
  V  V17  1  0.30671600  0.92857000  0.49296700  1
  V  V18  1  0.02437600  0.40355900  0.17493000  1
  V  V19  1  0.69210100  0.07347100  0.50905000  1
  V  V20  1  0.35449500  0.15336900  0.26416500  1
  V  V21  1  0.98059100  0.18001800  0.40308300  1
  V  V22  1  0.31159900  0.51180100  0.06625000  1
  V  V23  1  0.64364200  0.25638300  0.15680000  1
  O  O24  1  0.00886300  0.78678300  0.96363900  1
  O  O25  1  0.27178200  0.87674900  0.83038000  1
  O  O26  1  0.51581900  0.86133400  0.84151800  1
  O  O27  1  0.77483100  0.88053800  0.84057500  1
  O  O28  1  0.06493600  0.45360600  0.83138500  1
  O  O29  1  0.28524300  0.31306600  0.93163800  1
  O  O30  1  0.65888200  0.30160600  0.99577600  1
  O  O31  1  0.56012900  0.45736400  0.83558800  1
  O  O32  1  0.31513800  0.53869500  0.70641800  1
  O  O33  1  0.81774100  0.46764000  0.82331500  1
  O  O34  1  0.14947900  0.80151000  0.48966100  1
  O  O35  1  0.39447100  0.79156900  0.50448400  1
  O  O36  1  0.62369800  0.64676500  0.60755500  1
  O  O37  1  0.05020300  0.02883000  0.72619700  1
  O  O38  1  0.32502400  0.96664100  0.32890900  1
  O  O39  1  0.99192800  0.63577200  0.66328600  1
  O  O40  1  0.89275800  0.79070800  0.50222400  1
  O  O41  1  0.65267900  0.87919700  0.37088800  1
  O  O42  1  0.34074100  0.12367500  0.63126300  1
  O  O43  1  0.10678300  0.21033400  0.50448200  1
  O  O44  1  0.67617400  0.03364200  0.67286700  1
  O  O45  1  0.00978200  0.36867300  0.34044000  1
  O  O46  1  0.95422500  0.98168400  0.26791000  1
  O  O47  1  0.37868800  0.35516800  0.39485500  1
  O  O48  1  0.60554600  0.21195900  0.49811900  1
  O  O49  1  0.84982200  0.19610100  0.50835900  1
  O  O50  1  0.18226000  0.52681100  0.17400300  1
  O  O51  1  0.68187700  0.45062000  0.29523100  1
  O  O52  1  0.43991000  0.54113800  0.16287400  1
  O  O53  1  0.34173300  0.70265600  0.00607700  1
  O  O54  1  0.71710500  0.69504500  0.05951800  1
  O  O55  1  0.93886000  0.54321600  0.16380400  1
  O  O56  1  0.22610000  0.12250800  0.16755400  1
  O  O57  1  0.48496500  0.13583200  0.15758100  1
  O  O58  1  0.73171800  0.11637000  0.16241100  1
  O  O59  1  0.98179700  0.20529100  0.04003800  1
