# generated using pymatgen
data_Li5V3(CoO5)2
_symmetry_space_group_name_H-M   'P 1'
_cell_length_a   5.09575800
_cell_length_b   5.22848709
_cell_length_c   7.91970845
_cell_angle_alpha   107.28075895
_cell_angle_beta   102.66816620
_cell_angle_gamma   100.84873573
_symmetry_Int_Tables_number   1
_chemical_formula_structural   Li5V3(CoO5)2
_chemical_formula_sum   'Li5 V3 Co2 O10'
_cell_volume   189.16698997
_cell_formula_units_Z   1
loop_
 _symmetry_equiv_pos_site_id
 _symmetry_equiv_pos_as_xyz
  1  'x, y, z'
loop_
 _atom_site_type_symbol
 _atom_site_label
 _atom_site_symmetry_multiplicity
 _atom_site_fract_x
 _atom_site_fract_y
 _atom_site_fract_z
 _atom_site_occupancy
  Li  Li0  1  0.35038000  0.08235200  0.42172800  1
  Li  Li1  1  0.83384400  0.73660500  0.77386800  1
  Li  Li2  1  0.50000000  0.50000000  0.50000000  1
  Li  Li3  1  0.16615600  0.26339500  0.22613200  1
  Li  Li4  1  0.64962000  0.91764800  0.57827200  1
  V  V5  1  0.00000000  0.50000000  0.00000000  1
  V  V6  1  0.91991900  0.12788500  0.88182300  1
  V  V7  1  0.08008100  0.87211500  0.11817700  1
  Co  Co8  1  0.72736200  0.31634300  0.68047700  1
  Co  Co9  1  0.27263800  0.68365700  0.31952300  1
  O  O10  1  0.30668900  0.35718700  0.87191000  1
  O  O11  1  0.42981700  0.81479600  0.95837400  1
  O  O12  1  0.04436400  0.20323100  0.55035400  1
  O  O13  1  0.80143800  0.02579500  0.22300600  1
  O  O14  1  0.13755900  0.56195700  0.67185700  1
  O  O15  1  0.86244100  0.43804300  0.32814300  1
  O  O16  1  0.19856200  0.97420500  0.77699400  1
  O  O17  1  0.95563600  0.79676900  0.44964600  1
  O  O18  1  0.57018300  0.18520400  0.04162600  1
  O  O19  1  0.69331100  0.64281300  0.12809000  1
