# generated using pymatgen
data_Li4Co7O3F13
_symmetry_space_group_name_H-M   'P 1'
_cell_length_a   6.06517200
_cell_length_b   6.09317778
_cell_length_c   10.53983625
_cell_angle_alpha   105.48486266
_cell_angle_beta   91.48752668
_cell_angle_gamma   118.98927935
_symmetry_Int_Tables_number   1
_chemical_formula_structural   Li4Co7O3F13
_chemical_formula_sum   'Li4 Co7 O3 F13'
_cell_volume   322.71866200
_cell_formula_units_Z   1
loop_
 _symmetry_equiv_pos_site_id
 _symmetry_equiv_pos_as_xyz
  1  'x, y, z'
loop_
 _atom_site_type_symbol
 _atom_site_label
 _atom_site_symmetry_multiplicity
 _atom_site_fract_x
 _atom_site_fract_y
 _atom_site_fract_z
 _atom_site_occupancy
  Li  Li0  1  0.96266900  0.24457100  0.93883200  1
  Li  Li1  1  0.57146200  0.79179100  0.55900000  1
  Li  Li2  1  0.43275800  0.22463800  0.44050400  1
  Li  Li3  1  0.05867800  0.76352800  0.05758300  1
  Co  Co4  1  0.72793400  0.99071100  0.75015600  1
  Co  Co5  1  0.69211900  0.45674000  0.77115400  1
  Co  Co6  1  0.98024200  0.49195000  0.50043400  1
  Co  Co7  1  0.49526500  0.48648200  0.00129400  1
  Co  Co8  1  0.27637500  0.00328700  0.74701200  1
  Co  Co9  1  0.74347000  0.99031600  0.25148200  1
  Co  Co10  1  0.24329000  0.49862900  0.24914000  1
  O  O11  1  0.43867300  0.52950400  0.86702800  1
  O  O12  1  0.41557800  0.03731900  0.85834300  1
  O  O13  1  0.64238300  0.03935200  0.62621700  1
  F  F14  1  0.89339900  0.99071000  0.86430400  1
  F  F15  1  0.87612400  0.50294100  0.87307800  1
  F  F16  1  0.37150500  0.50181600  0.37097100  1
  F  F17  1  0.09227600  0.50317400  0.63393700  1
  F  F18  1  0.87691700  0.02817000  0.36352400  1
  F  F19  1  0.37020400  0.95256800  0.38398700  1
  F  F20  1  0.10581200  0.97248500  0.63994100  1
  F  F21  1  0.88395000  0.48080200  0.37536700  1
  F  F22  1  0.63786900  0.51842600  0.62768600  1
  F  F23  1  0.11595400  0.48323200  0.12720400  1
  F  F24  1  0.11215700  0.01967500  0.12257100  1
  F  F25  1  0.62212800  0.97003900  0.13373300  1
  F  F26  1  0.61080400  0.52713900  0.11552000  1
