# generated using pymatgen
data_Li4Fe3TeO8
_symmetry_space_group_name_H-M   'P 1'
_cell_length_a   5.99468000
_cell_length_b   6.64901510
_cell_length_c   4.99179177
_cell_angle_alpha   90.48271573
_cell_angle_beta   90.66733445
_cell_angle_gamma   92.77912291
_symmetry_Int_Tables_number   1
_chemical_formula_structural   Li4Fe3TeO8
_chemical_formula_sum   'Li4 Fe3 Te1 O8'
_cell_volume   198.71088043
_cell_formula_units_Z   1
loop_
 _symmetry_equiv_pos_site_id
 _symmetry_equiv_pos_as_xyz
  1  'x, y, z'
loop_
 _atom_site_type_symbol
 _atom_site_label
 _atom_site_symmetry_multiplicity
 _atom_site_fract_x
 _atom_site_fract_y
 _atom_site_fract_z
 _atom_site_occupancy
  Li  Li0  1  0.60537700  0.97336100  0.09433500  1
  Li  Li1  1  0.13552900  0.50731900  0.41818000  1
  Li  Li2  1  0.88369700  0.98456700  0.54690300  1
  Li  Li3  1  0.37303700  0.50355600  0.91138700  1
  Fe  Fe4  1  0.14840000  0.96626600  0.09393200  1
  Fe  Fe5  1  0.61894800  0.51027300  0.42247700  1
  Fe  Fe6  1  0.37429000  0.00286200  0.59087500  1
  Te  Te7  1  0.86287900  0.43420600  0.91341400  1
  O  O8  1  0.12418100  0.40264900  0.07770500  1
  O  O9  1  0.61518000  0.40709000  0.11706500  1
  O  O10  1  0.13788700  0.90694900  0.41890300  1
  O  O11  1  0.60659200  0.89348300  0.42769700  1
  O  O12  1  0.39628100  0.39103800  0.58614300  1
  O  O13  1  0.87718100  0.42292200  0.55815600  1
  O  O14  1  0.37002400  0.90030600  0.89309800  1
  O  O15  1  0.87051800  0.81955300  0.92972900  1
