# generated using pymatgen
data_Li4TiV3O8
_symmetry_space_group_name_H-M   'P 1'
_cell_length_a   5.96509200
_cell_length_b   5.96665937
_cell_length_c   5.99890620
_cell_angle_alpha   119.75611724
_cell_angle_beta   90.41650532
_cell_angle_gamma   119.53017264
_symmetry_Int_Tables_number   1
_chemical_formula_structural   Li4TiV3O8
_chemical_formula_sum   'Li4 Ti1 V3 O8'
_cell_volume   152.04859577
_cell_formula_units_Z   1
loop_
 _symmetry_equiv_pos_site_id
 _symmetry_equiv_pos_as_xyz
  1  'x, y, z'
loop_
 _atom_site_type_symbol
 _atom_site_label
 _atom_site_symmetry_multiplicity
 _atom_site_fract_x
 _atom_site_fract_y
 _atom_site_fract_z
 _atom_site_occupancy
  Li  Li0  1  0.49715500  0.49217600  0.50098000  1
  Li  Li1  1  0.00280900  0.99256600  0.49786600  1
  Li  Li2  1  0.99630000  0.48907600  0.50234400  1
  Li  Li3  1  0.50085300  0.99379200  0.50037300  1
  Ti  Ti4  1  0.99907300  0.99475200  0.00054900  1
  V  V5  1  0.00025100  0.49547600  0.00041400  1
  V  V6  1  0.49847700  0.99481300  0.00062500  1
  V  V7  1  0.49975400  0.49550800  0.99996200  1
  O  O8  1  0.29462900  0.53455400  0.23034800  1
  O  O9  1  0.76822400  0.00781100  0.23121100  1
  O  O10  1  0.77051100  0.52514100  0.23306800  1
  O  O11  1  0.70753800  0.97386300  0.77172600  1
  O  O12  1  0.29054700  0.01582900  0.22978600  1
  O  O13  1  0.22874000  0.46519800  0.76729300  1
  O  O14  1  0.22785000  0.97953200  0.77125900  1
  O  O15  1  0.70341400  0.45523500  0.77050800  1
