# generated using pymatgen
data_Li3VO3F
_symmetry_space_group_name_H-M   'P 1'
_cell_length_a   7.20149900
_cell_length_b   7.21304779
_cell_length_c   7.22962866
_cell_angle_alpha   109.84133293
_cell_angle_beta   108.95361444
_cell_angle_gamma   109.44338396
_symmetry_Int_Tables_number   1
_chemical_formula_structural   Li3VO3F
_chemical_formula_sum   'Li12 V4 O12 F4'
_cell_volume   289.70258903
_cell_formula_units_Z   4
loop_
 _symmetry_equiv_pos_site_id
 _symmetry_equiv_pos_as_xyz
  1  'x, y, z'
loop_
 _atom_site_type_symbol
 _atom_site_label
 _atom_site_symmetry_multiplicity
 _atom_site_fract_x
 _atom_site_fract_y
 _atom_site_fract_z
 _atom_site_occupancy
  Li  Li0  1  0.22506100  0.72438800  0.25989500  1
  Li  Li1  1  0.76121600  0.76814600  0.74801700  1
  Li  Li2  1  0.48378500  0.74859900  0.00466200  1
  Li  Li3  1  0.53551800  0.02119400  0.73040500  1
  Li  Li4  1  0.50315200  0.23263200  0.50367400  1
  Li  Li5  1  0.01437500  0.51558300  0.74054500  1
  Li  Li6  1  0.73704500  0.21848700  0.27008700  1
  Li  Li7  1  0.75358300  0.01471000  0.49399200  1
  Li  Li8  1  0.24526900  0.49751100  0.50324500  1
  Li  Li9  1  0.76715300  0.50943300  0.99747100  1
  Li  Li10  1  0.00582800  0.01028500  0.25174700  1
  Li  Li11  1  0.01635700  0.75266100  0.49389700  1
  V  V12  1  0.46302800  0.48239000  0.25889200  1
  V  V13  1  0.98041000  0.25664200  0.00016400  1
  V  V14  1  0.24439400  0.97729100  0.99962700  1
  V  V15  1  0.23854800  0.25949600  0.74052700  1
  O  O16  1  0.03797800  0.26937300  0.48618900  1
  O  O17  1  0.00409400  0.52488200  0.23740400  1
  O  O18  1  0.43970900  0.44664200  0.77580100  1
  O  O19  1  0.75293600  0.99727100  0.00157000  1
  O  O20  1  0.77959300  0.77487600  0.22188100  1
  O  O21  1  0.24233800  0.72157400  0.76350400  1
  O  O22  1  0.28379300  0.27157500  0.24674900  1
  O  O23  1  0.70667000  0.23724200  0.76846300  1
  O  O24  1  0.54213700  0.01268900  0.23420000  1
  O  O25  1  0.02055500  0.01212600  0.75385300  1
  O  O26  1  0.49329600  0.72459100  0.51325300  1
  O  O27  1  0.99862600  0.76930200  0.99791400  1
  F  F28  1  0.25303600  0.49685500  0.99707600  1
  F  F29  1  0.48048300  0.24300000  0.00367600  1
  F  F30  1  0.23819800  0.99844500  0.50385700  1
  F  F31  1  0.75183800  0.51011100  0.49776200  1
