# generated using pymatgen
data_Li2Cr2O7
_symmetry_space_group_name_H-M   'P 1'
_cell_length_a   12.63282900
_cell_length_b   7.08585814
_cell_length_c   6.47582094
_cell_angle_alpha   90.91571630
_cell_angle_beta   96.58857816
_cell_angle_gamma   94.81399481
_symmetry_Int_Tables_number   1
_chemical_formula_structural   Li2Cr2O7
_chemical_formula_sum   'Li8 Cr8 O28'
_cell_volume   573.62758779
_cell_formula_units_Z   4
loop_
 _symmetry_equiv_pos_site_id
 _symmetry_equiv_pos_as_xyz
  1  'x, y, z'
loop_
 _atom_site_type_symbol
 _atom_site_label
 _atom_site_symmetry_multiplicity
 _atom_site_fract_x
 _atom_site_fract_y
 _atom_site_fract_z
 _atom_site_occupancy
  Li  Li0  1  0.34748000  0.10932300  0.85050100  1
  Li  Li1  1  0.93242400  0.15305600  0.13918100  1
  Li  Li2  1  0.69944600  0.34955700  0.74869400  1
  Li  Li3  1  0.35542000  0.39292900  0.39389100  1
  Li  Li4  1  0.64458000  0.60707100  0.60610900  1
  Li  Li5  1  0.30055400  0.65044300  0.25130600  1
  Li  Li6  1  0.06757600  0.84694400  0.86081900  1
  Li  Li7  1  0.65252000  0.89067700  0.14949900  1
  Cr  Cr8  1  0.85120500  0.09508700  0.68126200  1
  Cr  Cr9  1  0.43458300  0.12107400  0.29809200  1
  Cr  Cr10  1  0.22269200  0.38252300  0.92205400  1
  Cr  Cr11  1  0.82733800  0.40997000  0.30903100  1
  Cr  Cr12  1  0.17266200  0.59003000  0.69096900  1
  Cr  Cr13  1  0.77730800  0.61747700  0.07794600  1
  Cr  Cr14  1  0.56541700  0.87892600  0.70190800  1
  Cr  Cr15  1  0.14879500  0.90491300  0.31873800  1
  O  O16  1  0.29372800  0.02360200  0.42868300  1
  O  O17  1  0.03551700  0.06091700  0.81940500  1
  O  O18  1  0.63634400  0.07182100  0.19770000  1
  O  O19  1  0.68642900  0.16179400  0.80618300  1
  O  O20  1  0.95024000  0.16112900  0.51253600  1
  O  O21  1  0.27694900  0.15155100  0.13147400  1
  O  O22  1  0.50132200  0.22353500  0.44786900  1
  O  O23  1  0.04939600  0.28366800  0.96130300  1
  O  O24  1  0.40567200  0.33646500  0.79251400  1
  O  O25  1  0.03129100  0.35795400  0.38045300  1
  O  O26  1  0.69896000  0.33071000  0.14635900  1
  O  O27  1  0.67175000  0.43532900  0.48997700  1
  O  O28  1  0.08356000  0.46799200  0.78917000  1
  O  O29  1  0.31995000  0.44377800  0.12179000  1
  O  O30  1  0.68005000  0.55622200  0.87821000  1
  O  O31  1  0.91644000  0.53200800  0.21083000  1
  O  O32  1  0.32825000  0.56467100  0.51002300  1
  O  O33  1  0.30104000  0.66929000  0.85364100  1
  O  O34  1  0.96870900  0.64204600  0.61954700  1
  O  O35  1  0.59432800  0.66353500  0.20748600  1
  O  O36  1  0.95060400  0.71633200  0.03869700  1
  O  O37  1  0.49867800  0.77646500  0.55213100  1
  O  O38  1  0.72305100  0.84844900  0.86852600  1
  O  O39  1  0.04976000  0.83887100  0.48746400  1
  O  O40  1  0.31357100  0.83820600  0.19381700  1
  O  O41  1  0.36365600  0.92817900  0.80230000  1
  O  O42  1  0.96448300  0.93908300  0.18059500  1
  O  O43  1  0.70627200  0.97639800  0.57131700  1
