# generated using pymatgen
data_LiV2P4(HO8)2
_symmetry_space_group_name_H-M   'P 1'
_cell_length_a   7.77858700
_cell_length_b   9.28229784
_cell_length_c   9.28830718
_cell_angle_alpha   116.36518642
_cell_angle_beta   102.10492337
_cell_angle_gamma   101.93347524
_symmetry_Int_Tables_number   1
_chemical_formula_structural   LiV2P4(HO8)2
_chemical_formula_sum   'Li2 V4 P8 H4 O32'
_cell_volume   552.02653306
_cell_formula_units_Z   2
loop_
 _symmetry_equiv_pos_site_id
 _symmetry_equiv_pos_as_xyz
  1  'x, y, z'
loop_
 _atom_site_type_symbol
 _atom_site_label
 _atom_site_symmetry_multiplicity
 _atom_site_fract_x
 _atom_site_fract_y
 _atom_site_fract_z
 _atom_site_occupancy
  Li  Li0  1  0.64385000  0.17102900  0.45924600  1
  Li  Li1  1  0.85606700  0.46975600  0.65832100  1
  V  V2  1  0.49577400  0.77062100  0.24026300  1
  V  V3  1  0.01251500  0.00671100  0.49998500  1
  V  V4  1  0.99806500  0.49972100  0.99765300  1
  V  V5  1  0.49551600  0.24276800  0.75351600  1
  P  P6  1  0.73200400  0.10020000  0.25309800  1
  P  P7  1  0.73503900  0.59810700  0.75201700  1
  P  P8  1  0.76744400  0.20443400  0.64426100  1
  P  P9  1  0.76540700  0.70666500  0.14640900  1
  P  P10  1  0.23193400  0.79485000  0.35449000  1
  P  P11  1  0.23394200  0.30247200  0.85077500  1
  P  P12  1  0.26841200  0.89864600  0.75008000  1
  P  P13  1  0.26410400  0.41726000  0.23833600  1
  H  H14  1  0.48720500  0.74894600  0.75939700  1
  H  H15  1  0.50773100  0.25215200  0.24230900  1
  H  H16  1  0.01263700  0.52296200  0.48424800  1
  H  H17  1  0.98401000  0.97511400  0.01727400  1
  O  O18  1  0.94794300  0.82457700  0.12393200  1
  O  O19  1  0.65544000  0.77563000  0.17660300  1
  O  O20  1  0.36675700  0.15248000  0.01403900  1
  O  O21  1  0.32340500  0.61522900  0.21968000  1
  O  O22  1  0.84812000  0.81938200  0.62594400  1
  O  O23  1  0.83982000  0.31581000  0.12600600  1
  O  O24  1  0.67003600  0.90166500  0.27182800  1
  O  O25  1  0.63528800  0.34325500  0.48598600  1
  O  O26  1  0.56584200  0.78156300  0.67704700  1
  O  O27  1  0.55315300  0.27301500  0.17959700  1
  O  O28  1  0.34085200  0.74474400  0.31490700  1
  O  O29  1  0.17167200  0.13380200  0.19429400  1
  O  O30  1  0.18999200  0.63535000  0.69729900  1
  O  O31  1  0.93627100  0.34475700  0.61349100  1
  O  O32  1  0.86969200  0.40900700  0.92800700  1
  O  O33  1  0.86227900  0.89858000  0.43057400  1
  O  O34  1  0.13692300  0.09290800  0.57517000  1
  O  O35  1  0.12767900  0.59814900  0.06790400  1
  O  O36  1  0.05352300  0.66914300  0.37854700  1
  O  O37  1  0.82686200  0.86502400  0.80314700  1
  O  O38  1  0.81218100  0.36882700  0.31076900  1
  O  O39  1  0.65676900  0.25807700  0.68092300  1
  O  O40  1  0.44720200  0.72134100  0.82541900  1
  O  O41  1  0.44099200  0.24156800  0.31438500  1
  O  O42  1  0.36502700  0.65591500  0.50976400  1
  O  O43  1  0.31878700  0.09722400  0.72825700  1
  O  O44  1  0.15798100  0.67631900  0.87782600  1
  O  O45  1  0.15116000  0.20458200  0.36375400  1
  O  O46  1  0.69136400  0.40221000  0.77085200  1
  O  O47  1  0.63585700  0.84225000  0.99154700  1
  O  O48  1  0.35202400  0.23798200  0.82312900  1
  O  O49  1  0.05745200  0.18026700  0.87667600  1
