# generated using pymatgen
data_Li4MnFe3(PO4)4
_symmetry_space_group_name_H-M   'P 1'
_cell_length_a   10.51703300
_cell_length_b   7.74046351
_cell_length_c   7.72961666
_cell_angle_alpha   103.98916375
_cell_angle_beta   90.05412608
_cell_angle_gamma   90.07980220
_symmetry_Int_Tables_number   1
_chemical_formula_structural   Li4MnFe3(PO4)4
_chemical_formula_sum   'Li8 Mn2 Fe6 P8 O32'
_cell_volume   610.57912170
_cell_formula_units_Z   2
loop_
 _symmetry_equiv_pos_site_id
 _symmetry_equiv_pos_as_xyz
  1  'x, y, z'
loop_
 _atom_site_type_symbol
 _atom_site_label
 _atom_site_symmetry_multiplicity
 _atom_site_fract_x
 _atom_site_fract_y
 _atom_site_fract_z
 _atom_site_occupancy
  Li  Li0  1  0.75048500  0.50051100  0.74983900  1
  Li  Li1  1  0.50000000  0.50000000  0.00000000  1
  Li  Li2  1  0.24951500  0.49948900  0.25016100  1
  Li  Li3  1  0.00000000  0.50000000  0.50000000  1
  Li  Li4  1  0.75037200  0.99948500  0.25003100  1
  Li  Li5  1  0.50000000  0.00000000  0.50000000  1
  Li  Li6  1  0.24962800  0.00051500  0.74996900  1
  Li  Li7  1  0.00000000  0.00000000  0.00000000  1
  Mn  Mn8  1  0.38529000  0.71758100  0.63576100  1
  Mn  Mn9  1  0.61471000  0.28241900  0.36423900  1
  Fe  Fe10  1  0.38720700  0.78260700  0.13700000  1
  Fe  Fe11  1  0.88760300  0.78257300  0.63786300  1
  Fe  Fe12  1  0.88697800  0.71756300  0.13657100  1
  Fe  Fe13  1  0.11302200  0.28243700  0.86342900  1
  Fe  Fe14  1  0.61279300  0.21739300  0.86300000  1
  Fe  Fe15  1  0.11239700  0.21742700  0.36213700  1
  P  P16  1  0.66736400  0.90493000  0.91739600  1
  P  P17  1  0.16465800  0.90572100  0.41461300  1
  P  P18  1  0.66874600  0.59660600  0.41660700  1
  P  P19  1  0.16631700  0.59552500  0.91841400  1
  P  P20  1  0.83368300  0.40447500  0.08158600  1
  P  P21  1  0.33125400  0.40339400  0.58339300  1
  P  P22  1  0.83534200  0.09427900  0.58538700  1
  P  P23  1  0.33263600  0.09507000  0.08260400  1
  O  O24  1  0.27125900  0.95795300  0.02112400  1
  O  O25  1  0.77237200  0.95763000  0.52237000  1
  O  O26  1  0.00361300  0.90219100  0.25368700  1
  O  O27  1  0.50553700  0.90203900  0.75570100  1
  O  O28  1  0.63194100  0.83458100  0.08485200  1
  O  O29  1  0.33316900  0.83572100  0.37956900  1
  O  O30  1  0.83493000  0.83460600  0.88209500  1
  O  O31  1  0.12971100  0.83582900  0.58298700  1
  O  O32  1  0.33640600  0.66515600  0.88749600  1
  O  O33  1  0.13039300  0.66503200  0.08653900  1
  O  O34  1  0.63729100  0.66600500  0.58625600  1
  O  O35  1  0.83651100  0.66583000  0.38007500  1
  O  O36  1  0.50550200  0.59917500  0.25684200  1
  O  O37  1  0.00659400  0.59939900  0.75550100  1
  O  O38  1  0.27054400  0.54074200  0.52221800  1
  O  O39  1  0.77289300  0.54200000  0.02121300  1
  O  O40  1  0.72945600  0.45925800  0.47778200  1
  O  O41  1  0.22710700  0.45800000  0.97878700  1
  O  O42  1  0.49449800  0.40082500  0.74315800  1
  O  O43  1  0.99340600  0.40060100  0.24449900  1
  O  O44  1  0.86960700  0.33496800  0.91346100  1
  O  O45  1  0.66359400  0.33484400  0.11250400  1
  O  O46  1  0.36270900  0.33399500  0.41374400  1
  O  O47  1  0.16348900  0.33417000  0.61992500  1
  O  O48  1  0.66683100  0.16427900  0.62043100  1
  O  O49  1  0.36805900  0.16541900  0.91514800  1
  O  O50  1  0.87028900  0.16417100  0.41701300  1
  O  O51  1  0.16507000  0.16539400  0.11790500  1
  O  O52  1  0.99638700  0.09780900  0.74631300  1
  O  O53  1  0.49446300  0.09796100  0.24429900  1
  O  O54  1  0.72874100  0.04204700  0.97887600  1
  O  O55  1  0.22762800  0.04237000  0.47763000  1
