# generated using pymatgen
data_Li3Fe2(PO4)3
_symmetry_space_group_name_H-M   'P 1'
_cell_length_a   8.39074700
_cell_length_b   8.41317436
_cell_length_c   9.05010400
_cell_angle_alpha   117.68347990
_cell_angle_beta   90.02470971
_cell_angle_gamma   119.87948040
_symmetry_Int_Tables_number   1
_chemical_formula_structural   Li3Fe2(PO4)3
_chemical_formula_sum   'Li6 Fe4 P6 O24'
_cell_volume   467.63481886
_cell_formula_units_Z   2
loop_
 _symmetry_equiv_pos_site_id
 _symmetry_equiv_pos_as_xyz
  1  'x, y, z'
loop_
 _atom_site_type_symbol
 _atom_site_label
 _atom_site_symmetry_multiplicity
 _atom_site_fract_x
 _atom_site_fract_y
 _atom_site_fract_z
 _atom_site_occupancy
  Li  Li0  1  0.08119200  0.12301800  0.14826600  1
  Li  Li1  1  0.32919800  0.78043800  0.14194600  1
  Li  Li2  1  0.74529700  0.17727200  0.38016200  1
  Li  Li3  1  0.26715200  0.46144800  0.86448100  1
  Li  Li4  1  0.67133500  0.20466300  0.86450400  1
  Li  Li5  1  0.92241900  0.86996200  0.86316600  1
  Fe  Fe6  1  0.35733600  0.60941400  0.04676100  1
  Fe  Fe7  1  0.15044600  0.41180500  0.44120200  1
  Fe  Fe8  1  0.85725800  0.58568500  0.56109300  1
  Fe  Fe9  1  0.65315700  0.39412300  0.95614900  1
  P  P10  1  0.03929100  0.30030500  0.24441000  1
  P  P11  1  0.45825700  0.99754900  0.25360200  1
  P  P12  1  0.75084000  0.70546700  0.25145400  1
  P  P13  1  0.25283700  0.28770100  0.75320900  1
  P  P14  1  0.53782100  0.99823200  0.74899100  1
  P  P15  1  0.96015100  0.69325900  0.75781200  1
  O  O16  1  0.17348200  0.31548800  0.19579300  1
  O  O17  1  0.13344800  0.48958900  0.26081600  1
  O  O18  1  0.99764600  0.97971800  0.41374400  1
  O  O19  1  0.46159500  0.10840000  0.10155600  1
  O  O20  1  0.25249500  0.85263100  0.27087200  1
  O  O21  1  0.49255200  0.26374500  0.20305500  1
  O  O22  1  0.53331900  0.63756200  0.19579900  1
  O  O23  1  0.79549000  0.05265400  0.09492400  1
  O  O24  1  0.84692400  0.44644600  0.08923700  1
  O  O25  1  0.19821100  0.41127600  0.58641500  1
  O  O26  1  0.12686000  0.40978700  0.73147000  1
  O  O27  1  0.38497600  0.22080700  0.57461700  1
  O  O28  1  0.61703000  0.78626000  0.42432400  1
  O  O29  1  0.87136900  0.55788100  0.28674400  1
  O  O30  1  0.79996400  0.59131700  0.41365200  1
  O  O31  1  0.15758700  0.55076100  0.90766700  1
  O  O32  1  0.21047800  0.93865400  0.90831400  1
  O  O33  1  0.46922900  0.35691700  0.80987700  1
  O  O34  1  0.50425800  0.72058600  0.80944800  1
  O  O35  1  0.74349300  0.14132700  0.73116900  1
  O  O36  1  0.52304600  0.90455200  0.89000200  1
  O  O37  1  0.98759200  0.01903300  0.58173300  1
  O  O38  1  0.86448500  0.50508900  0.74093300  1
  O  O39  1  0.83300000  0.68105100  0.80854900  1
