# generated using pymatgen
data_Li3NbP3O11
_symmetry_space_group_name_H-M   'P 1'
_cell_length_a   8.23064400
_cell_length_b   8.35257158
_cell_length_c   6.10726734
_cell_angle_alpha   92.93276375
_cell_angle_beta   102.23723433
_cell_angle_gamma   106.82422967
_symmetry_Int_Tables_number   1
_chemical_formula_structural   Li3NbP3O11
_chemical_formula_sum   'Li6 Nb2 P6 O22'
_cell_volume   389.90277380
_cell_formula_units_Z   2
loop_
 _symmetry_equiv_pos_site_id
 _symmetry_equiv_pos_as_xyz
  1  'x, y, z'
loop_
 _atom_site_type_symbol
 _atom_site_label
 _atom_site_symmetry_multiplicity
 _atom_site_fract_x
 _atom_site_fract_y
 _atom_site_fract_z
 _atom_site_occupancy
  Li  Li0  1  0.81947900  0.62189900  0.99748500  1
  Li  Li1  1  0.53658100  0.39951900  0.14377300  1
  Li  Li2  1  0.94721800  0.72129700  0.42673600  1
  Li  Li3  1  0.05278200  0.27870300  0.57326400  1
  Li  Li4  1  0.46341900  0.60048100  0.85622700  1
  Li  Li5  1  0.18052100  0.37810100  0.00251500  1
  Nb  Nb6  1  0.72716200  0.88138600  0.66934400  1
  Nb  Nb7  1  0.27283800  0.11861400  0.33065600  1
  P  P8  1  0.62318500  0.90658200  0.23247500  1
  P  P9  1  0.86904600  0.15095000  0.12719100  1
  P  P10  1  0.31212000  0.60781900  0.38349000  1
  P  P11  1  0.68788000  0.39218100  0.61651000  1
  P  P12  1  0.13095400  0.84905000  0.87280900  1
  P  P13  1  0.37681500  0.09341800  0.76752500  1
  O  O14  1  0.62725400  0.69268400  0.09933000  1
  O  O15  1  0.89399200  0.39062500  0.11290500  1
  O  O16  1  0.44350700  0.94647300  0.21960600  1
  O  O17  1  0.69307700  0.12989000  0.18057900  1
  O  O18  1  0.74702700  0.90326400  0.41194400  1
  O  O19  1  0.16186200  0.04047400  0.03799100  1
  O  O20  1  0.34062800  0.42188200  0.23350500  1
  O  O21  1  0.18854800  0.76897700  0.30808400  1
  O  O22  1  0.77624300  0.54121800  0.52698200  1
  O  O23  1  0.47959400  0.73864500  0.50121500  1
  O  O24  1  0.99938800  0.90164400  0.71255900  1
  O  O25  1  0.00061200  0.09835600  0.28744100  1
  O  O26  1  0.52040600  0.26135500  0.49878500  1
  O  O27  1  0.22375700  0.45878200  0.47301800  1
  O  O28  1  0.81145200  0.23102300  0.69191600  1
  O  O29  1  0.65937200  0.57811800  0.76649500  1
  O  O30  1  0.83813800  0.95952600  0.96200900  1
  O  O31  1  0.25297300  0.09673600  0.58805600  1
  O  O32  1  0.30692300  0.87011000  0.81942100  1
  O  O33  1  0.55649300  0.05352700  0.78039400  1
  O  O34  1  0.10600800  0.60937500  0.88709500  1
  O  O35  1  0.37274600  0.30731600  0.90067000  1
