# generated using pymatgen
data_Li7V3P8O29
_symmetry_space_group_name_H-M   'P 1'
_cell_length_a   9.85057743
_cell_length_b   9.85656602
_cell_length_c   13.90435338
_cell_angle_alpha   89.94481947
_cell_angle_beta   90.05428419
_cell_angle_gamma   60.13961291
_symmetry_Int_Tables_number   1
_chemical_formula_structural   Li7V3P8O29
_chemical_formula_sum   'Li14 V6 P16 O58'
_cell_volume   1170.78520428
_cell_formula_units_Z   2
loop_
 _symmetry_equiv_pos_site_id
 _symmetry_equiv_pos_as_xyz
  1  'x, y, z'
loop_
 _atom_site_type_symbol
 _atom_site_label
 _atom_site_symmetry_multiplicity
 _atom_site_fract_x
 _atom_site_fract_y
 _atom_site_fract_z
 _atom_site_occupancy
  Li  Li0  1  0.76607800  0.90694800  0.56573100  1
  Li  Li1  1  0.90717400  0.33091400  0.56609400  1
  Li  Li2  1  0.66683500  0.66104200  0.38479300  1
  Li  Li3  1  0.67416400  0.67495400  0.88612700  1
  Li  Li4  1  0.76484600  0.32422300  0.06222900  1
  Li  Li5  1  0.32158000  0.90949000  0.05885200  1
  Li  Li6  1  0.32633600  0.76709800  0.56548400  1
  Li  Li7  1  0.66307000  0.10135300  0.93680200  1
  Li  Li8  1  0.23551800  0.65841300  0.93936400  1
  Li  Li9  1  0.09758800  0.66652800  0.44120400  1
  Li  Li10  1  0.23284500  0.09762300  0.44534000  1
  Li  Li11  1  0.09966700  0.23119500  0.93420600  1
  Li  Li12  1  0.98464900  0.96090600  0.99997300  1
  Li  Li13  1  0.95219200  0.03067600  0.50358300  1
  V  V14  1  0.56257300  0.43483200  0.25470300  1
  V  V15  1  0.43772900  0.55945400  0.74834800  1
  V  V16  1  0.56550600  0.00038400  0.74844800  1
  V  V17  1  0.43864500  0.00253700  0.24849100  1
  V  V18  1  0.99985200  0.56552000  0.24401100  1
  V  V19  1  0.00179400  0.43609300  0.74969100  1
  P  P20  1  0.91225000  0.78051200  0.84231500  1
  P  P21  1  0.77898300  0.90761400  0.34242500  1
  P  P22  1  0.91190900  0.31513100  0.34189100  1
  P  P23  1  0.66235600  0.66679300  0.12997000  1
  P  P24  1  0.66472000  0.66544400  0.62556600  1
  P  P25  1  0.77284100  0.31539600  0.84479100  1
  P  P26  1  0.69510800  0.22342100  0.65708900  1
  P  P27  1  0.31728400  0.90557100  0.84270200  1
  P  P28  1  0.69193300  0.08657000  0.15690200  1
  P  P29  1  0.31519900  0.77634700  0.34314800  1
  P  P30  1  0.22920100  0.68570100  0.15785100  1
  P  P31  1  0.33010500  0.33466600  0.36936200  1
  P  P32  1  0.33618100  0.33372900  0.87410700  1
  P  P33  1  0.08627200  0.68740100  0.65519600  1
  P  P34  1  0.22744400  0.08501400  0.65736100  1
  P  P35  1  0.08680500  0.22629100  0.15605100  1
  O  O36  1  0.00256000  0.77887000  0.56463200  1
  O  O37  1  0.92115900  0.73964500  0.33940700  1
  O  O38  1  0.77865400  0.01068900  0.06626900  1
  O  O39  1  0.74765300  0.92496200  0.84441100  1
  O  O40  1  0.89747400  0.63196800  0.83684900  1
  O  O41  1  0.80652900  0.67065500  0.17391400  1
  O  O42  1  0.90375000  0.47594500  0.32964800  1
  O  O43  1  0.99770200  0.22649800  0.06760600  1
  O  O44  1  0.91862400  0.33312900  0.84560400  1
  O  O45  1  0.67582600  0.80918200  0.66103500  1
  O  O46  1  0.62773900  0.89480100  0.32879000  1
  O  O47  1  0.80940500  0.51224200  0.66212000  1
  O  O48  1  0.65693800  0.66521700  0.02254100  1
  O  O49  1  0.65209000  0.66598600  0.51685600  1
  O  O50  1  0.66703600  0.51648600  0.17144100  1
  O  O51  1  0.48088600  0.88791100  0.83321600  1
  O  O52  1  0.51021700  0.81601000  0.16954200  1
  O  O53  1  0.74398700  0.34530300  0.34174400  1
  O  O54  1  0.78911600  0.20464600  0.75697600  1
  O  O55  1  0.80197200  0.21244500  0.57631900  1
  O  O56  1  0.76170600  0.23569900  0.93542700  1
  O  O57  1  0.62666500  0.48025400  0.82931500  1
  O  O58  1  0.51180800  0.67435400  0.66971200  1
  O  O59  1  0.66593600  0.25394700  0.16449600  1
  O  O60  1  0.48032300  0.62995800  0.32992200  1
  O  O61  1  0.33365700  0.92290400  0.34382100  1
  O  O62  1  0.79690800  0.99522400  0.24997600  1
  O  O63  1  0.78205700  0.98759000  0.43307200  1
  O  O64  1  0.22710100  0.99513100  0.56802400  1
  O  O65  1  0.66721000  0.08433100  0.65554400  1
  O  O66  1  0.54169200  0.38167900  0.66407800  1
  O  O67  1  0.33385400  0.74129500  0.84348900  1
  O  O68  1  0.47602500  0.33744700  0.32532700  1
  O  O69  1  0.38550000  0.53350900  0.16898000  1
  O  O70  1  0.22140500  0.77804000  0.06891100  1
  O  O71  1  0.23194000  0.76571300  0.43124900  1
  O  O72  1  0.21034300  0.79425900  0.25035600  1
  O  O73  1  0.25173500  0.66825700  0.65926600  1
  O  O74  1  0.48693100  0.18742100  0.83831300  1
  O  O75  1  0.53608400  0.08521200  0.16768600  1
  O  O76  1  0.33436500  0.48248700  0.82331900  1
  O  O77  1  0.33480000  0.35777800  0.98053200  1
  O  O78  1  0.32717400  0.32868200  0.47559500  1
  O  O79  1  0.18241400  0.48385400  0.32849900  1
  O  O80  1  0.37683600  0.09277000  0.66916800  1
  O  O81  1  0.33408900  0.18316200  0.32507400  1
  O  O82  1  0.09044800  0.65699600  0.16271300  1
  O  O83  1  0.98932500  0.79786900  0.74353400  1
  O  O84  1  0.01293800  0.78571500  0.92237100  1
  O  O85  1  0.09222600  0.53102100  0.66476500  1
  O  O86  1  0.19014500  0.32761000  0.83661400  1
  O  O87  1  0.09052700  0.37897700  0.16841800  1
  O  O88  1  0.25313500  0.08273800  0.15702700  1
  O  O89  1  0.22775200  0.99780500  0.93113500  1
  O  O90  1  0.21161100  0.99360300  0.75035100  1
  O  O91  1  0.08112300  0.24721200  0.65820000  1
  O  O92  1  0.00202900  0.22723500  0.43054400  1
  O  O93  1  0.99958200  0.20727100  0.24973500  1
