# generated using pymatgen
data_Li9V12Fe7O48
_symmetry_space_group_name_H-M   'P 1'
_cell_length_a   5.12459148
_cell_length_b   10.21292841
_cell_length_c   17.44121858
_cell_angle_alpha   90.25433649
_cell_angle_beta   90.42840689
_cell_angle_gamma   89.81094714
_symmetry_Int_Tables_number   1
_chemical_formula_structural   Li9V12Fe7O48
_chemical_formula_sum   'Li9 V12 Fe7 O48'
_cell_volume   912.78317557
_cell_formula_units_Z   1
loop_
 _symmetry_equiv_pos_site_id
 _symmetry_equiv_pos_as_xyz
  1  'x, y, z'
loop_
 _atom_site_type_symbol
 _atom_site_label
 _atom_site_symmetry_multiplicity
 _atom_site_fract_x
 _atom_site_fract_y
 _atom_site_fract_z
 _atom_site_occupancy
  Li  Li0  1  0.24234300  0.41883600  0.96982900  1
  Li  Li1  1  0.26625300  0.74810300  0.30208200  1
  Li  Li2  1  0.24847500  0.25321800  0.79879300  1
  Li  Li3  1  0.25274700  0.58484100  0.47063900  1
  Li  Li4  1  0.40063900  0.74863000  0.75204300  1
  Li  Li5  1  0.59724300  0.24893100  0.24798400  1
  Li  Li6  1  0.74687400  0.08564400  0.52950300  1
  Li  Li7  1  0.75696900  0.74774800  0.20221800  1
  Li  Li8  1  0.74047300  0.24934900  0.69890300  1
  V  V9  1  0.21341200  0.74667900  0.94347500  1
  V  V10  1  0.21453100  0.02525500  0.65623500  1
  V  V11  1  0.21011700  0.47288300  0.65101800  1
  V  V12  1  0.27947800  0.52690900  0.15246600  1
  V  V13  1  0.28212500  0.97047700  0.15636500  1
  V  V14  1  0.27700500  0.25311800  0.44310000  1
  V  V15  1  0.72249600  0.75426100  0.55574600  1
  V  V16  1  0.71587800  0.02857900  0.84633200  1
  V  V17  1  0.72488500  0.47575000  0.84426600  1
  V  V18  1  0.78702500  0.52572500  0.34408100  1
  V  V19  1  0.79149700  0.97364800  0.34847400  1
  V  V20  1  0.78199600  0.24734700  0.05793800  1
  Fe  Fe21  1  0.09572800  0.24906800  0.25160200  1
  Fe  Fe22  1  0.24324200  0.07573900  0.97280500  1
  Fe  Fe23  1  0.26431500  0.93216300  0.47561000  1
  Fe  Fe24  1  0.73535200  0.43199000  0.52383400  1
  Fe  Fe25  1  0.75107100  0.56752900  0.02625100  1
  Fe  Fe26  1  0.74655900  0.92143600  0.02976800  1
  Fe  Fe27  1  0.90133800  0.74997500  0.74672500  1
  O  O28  1  0.05495300  0.23936300  0.99603900  1
  O  O29  1  0.05610600  0.61270300  0.36983600  1
  O  O30  1  0.08169800  0.88861300  0.37996400  1
  O  O31  1  0.10374400  0.63111700  0.20984300  1
  O  O32  1  0.10532000  0.87182100  0.21332700  1
  O  O33  1  0.10226700  0.11018300  0.46638000  1
  O  O34  1  0.06356900  0.37859100  0.46412200  1
  O  O35  1  0.07706800  0.00090500  0.07348700  1
  O  O36  1  0.07422800  0.49576100  0.07427900  1
  O  O37  1  0.14154000  0.74803900  0.84779500  1
  O  O38  1  0.14258800  0.61376700  0.70467300  1
  O  O39  1  0.14447100  0.88360100  0.70827600  1
  O  O40  1  0.33472500  0.11637800  0.20483800  1
  O  O41  1  0.33030300  0.38177000  0.20379900  1
  O  O42  1  0.33225500  0.25261600  0.34450000  1
  O  O43  1  0.41210800  0.98986300  0.57334200  1
  O  O44  1  0.41436600  0.50946000  0.57385800  1
  O  O45  1  0.41115100  0.88620500  0.96699500  1
  O  O46  1  0.42098100  0.62086100  0.96608600  1
  O  O47  1  0.41123200  0.12699700  0.71224900  1
  O  O48  1  0.38760200  0.36674400  0.70660200  1
  O  O49  1  0.42854700  0.11078400  0.87661400  1
  O  O50  1  0.44801400  0.39349000  0.86874900  1
  O  O51  1  0.44242900  0.76439300  0.49350200  1
  O  O52  1  0.55733400  0.26434600  0.50490500  1
  O  O53  1  0.57026600  0.60848600  0.12280700  1
  O  O54  1  0.57028600  0.88673900  0.12654400  1
  O  O55  1  0.59430700  0.62781800  0.28725000  1
  O  O56  1  0.61585900  0.86894000  0.29178300  1
  O  O57  1  0.57531000  0.10928100  0.03583200  1
  O  O58  1  0.59639600  0.38355400  0.03534300  1
  O  O59  1  0.58524500  0.00979900  0.42562500  1
  O  O60  1  0.58811400  0.49077900  0.42587300  1
  O  O61  1  0.66579000  0.75391600  0.65395800  1
  O  O62  1  0.66533300  0.61781600  0.79128200  1
  O  O63  1  0.66630600  0.88384000  0.79617300  1
  O  O64  1  0.85754700  0.11536400  0.29593900  1
  O  O65  1  0.85552600  0.38356400  0.29115700  1
  O  O66  1  0.85903500  0.24568400  0.15409000  1
  O  O67  1  0.90933900  0.51461400  0.92734400  1
  O  O68  1  0.91474400  0.99025500  0.92989300  1
  O  O69  1  0.89725900  0.61038900  0.53288300  1
  O  O70  1  0.93638500  0.87906500  0.53506700  1
  O  O71  1  0.90426800  0.12956300  0.79372200  1
  O  O72  1  0.91063200  0.36727500  0.78799300  1
  O  O73  1  0.94640100  0.11299600  0.63019200  1
  O  O74  1  0.91942000  0.38906000  0.61951100  1
  O  O75  1  0.92756600  0.74899900  0.00758500  1
