# generated using pymatgen
data_Li3Sb3(PO4)4
_symmetry_space_group_name_H-M   'P 1'
_cell_length_a   9.11803000
_cell_length_b   9.65900825
_cell_length_c   10.48490063
_cell_angle_alpha   108.97279710
_cell_angle_beta   103.06419885
_cell_angle_gamma   111.24097528
_symmetry_Int_Tables_number   1
_chemical_formula_structural   Li3Sb3(PO4)4
_chemical_formula_sum   'Li6 Sb6 P8 O32'
_cell_volume   749.44670507
_cell_formula_units_Z   2
loop_
 _symmetry_equiv_pos_site_id
 _symmetry_equiv_pos_as_xyz
  1  'x, y, z'
loop_
 _atom_site_type_symbol
 _atom_site_label
 _atom_site_symmetry_multiplicity
 _atom_site_fract_x
 _atom_site_fract_y
 _atom_site_fract_z
 _atom_site_occupancy
  Li  Li0  1  0.78645400  0.20341200  0.23564000  1
  Li  Li1  1  0.32954900  0.28454100  0.14860400  1
  Li  Li2  1  0.59781500  0.64195100  0.70789000  1
  Li  Li3  1  0.40218500  0.35804900  0.29211000  1
  Li  Li4  1  0.67045100  0.71545900  0.85139600  1
  Li  Li5  1  0.21354600  0.79658800  0.76436000  1
  Sb  Sb6  1  0.34640700  0.58781400  0.44612400  1
  Sb  Sb7  1  0.02722200  0.27168700  0.84739100  1
  Sb  Sb8  1  0.73531500  0.32032200  0.74993100  1
  Sb  Sb9  1  0.26468500  0.67967800  0.25006900  1
  Sb  Sb10  1  0.97277800  0.72831300  0.15260900  1
  Sb  Sb11  1  0.65359300  0.41218600  0.55387600  1
  P  P12  1  0.15135000  0.86655900  0.41499200  1
  P  P13  1  0.90650700  0.09832300  0.07790400  1
  P  P14  1  0.65834700  0.32849900  0.94146500  1
  P  P15  1  0.56438400  0.74546200  0.50725600  1
  P  P16  1  0.43561600  0.25453800  0.49274400  1
  P  P17  1  0.34165300  0.67150100  0.05853500  1
  P  P18  1  0.09349300  0.90167700  0.92209600  1
  P  P19  1  0.84865000  0.13344100  0.58500800  1
  O  O20  1  0.66619400  0.92333500  0.11974000  1
  O  O21  1  0.42214300  0.02145900  0.08278600  1
  O  O22  1  0.27650200  0.53016300  0.58780100  1
  O  O23  1  0.06277500  0.72079200  0.39676100  1
  O  O24  1  0.33751100  0.88122200  0.40221300  1
  O  O25  1  0.91055200  0.92752700  0.15076800  1
  O  O26  1  0.86804100  0.66864800  0.57651700  1
  O  O27  1  0.93441000  0.45685300  0.86382100  1
  O  O28  1  0.71675600  0.70683900  0.45524200  1
  O  O29  1  0.66369100  0.38860200  0.84154800  1
  O  O30  1  0.28210100  0.12956800  0.30085800  1
  O  O31  1  0.87988000  0.19982700  0.11624000  1
  O  O32  1  0.73931800  0.02152700  0.37861700  1
  O  O33  1  0.54098300  0.35690900  0.36056600  1
  O  O34  1  0.16503400  0.32141300  0.90583300  1
  O  O35  1  0.40397700  0.56862600  0.02784200  1
  O  O36  1  0.59602300  0.43137400  0.97215800  1
  O  O37  1  0.83496600  0.67858700  0.09416700  1
  O  O38  1  0.45901700  0.64309100  0.63943400  1
  O  O39  1  0.26068200  0.97847300  0.62138300  1
  O  O40  1  0.12012000  0.80017300  0.88376000  1
  O  O41  1  0.71789900  0.87043200  0.69914200  1
  O  O42  1  0.33630900  0.61139800  0.15845200  1
  O  O43  1  0.28324400  0.29316100  0.54475800  1
  O  O44  1  0.06559000  0.54314700  0.13617900  1
  O  O45  1  0.13195900  0.33135200  0.42348300  1
  O  O46  1  0.08944800  0.07247300  0.84923200  1
  O  O47  1  0.66248900  0.11877800  0.59778700  1
  O  O48  1  0.93722500  0.27920800  0.60323900  1
  O  O49  1  0.72349800  0.46983700  0.41219900  1
  O  O50  1  0.57785700  0.97854100  0.91721400  1
  O  O51  1  0.33380600  0.07666500  0.88026000  1
