# generated using pymatgen
data_Li11V8(PO4)12
_symmetry_space_group_name_H-M   'P 1'
_cell_length_a   12.25535500
_cell_length_b   8.72008046
_cell_length_c   8.78387852
_cell_angle_alpha   90.30482638
_cell_angle_beta   90.18092414
_cell_angle_gamma   90.15872513
_symmetry_Int_Tables_number   1
_chemical_formula_structural   Li11V8(PO4)12
_chemical_formula_sum   'Li11 V8 P12 O48'
_cell_volume   938.69112224
_cell_formula_units_Z   1
loop_
 _symmetry_equiv_pos_site_id
 _symmetry_equiv_pos_as_xyz
  1  'x, y, z'
loop_
 _atom_site_type_symbol
 _atom_site_label
 _atom_site_symmetry_multiplicity
 _atom_site_fract_x
 _atom_site_fract_y
 _atom_site_fract_z
 _atom_site_occupancy
  Li  Li0  1  0.77763200  0.18189500  0.21802800  1
  Li  Li1  1  0.27598800  0.18053200  0.77423200  1
  Li  Li2  1  0.41820200  0.28960100  0.05580700  1
  Li  Li3  1  0.26679300  0.31749400  0.31390400  1
  Li  Li4  1  0.77294500  0.31728700  0.71532700  1
  Li  Li5  1  0.22827700  0.68158900  0.27324000  1
  Li  Li6  1  0.73217300  0.68493000  0.68514600  1
  Li  Li7  1  0.58628500  0.71295900  0.94798700  1
  Li  Li8  1  0.08239800  0.78547100  0.55394800  1
  Li  Li9  1  0.72934500  0.81909300  0.22721400  1
  Li  Li10  1  0.23309700  0.81560300  0.81364700  1
  V  V11  1  0.46179200  0.11259600  0.26008100  1
  V  V12  1  0.95805200  0.11418000  0.74642800  1
  V  V13  1  0.46188000  0.38751900  0.74673700  1
  V  V14  1  0.96127600  0.38511500  0.24443100  1
  V  V15  1  0.54015900  0.61192700  0.25509500  1
  V  V16  1  0.03910200  0.60961300  0.75988400  1
  V  V17  1  0.04096000  0.88820100  0.24533700  1
  V  V18  1  0.53911700  0.88889600  0.74256500  1
  P  P19  1  0.24667800  0.99863100  0.54438400  1
  P  P20  1  0.75041500  0.00023300  0.45953900  1
  P  P21  1  0.10565600  0.14781300  0.10059100  1
  P  P22  1  0.60380000  0.14558000  0.89778300  1
  P  P23  1  0.60531000  0.35352100  0.39263900  1
  P  P24  1  0.09945400  0.35135800  0.60923300  1
  P  P25  1  0.25323400  0.49789700  0.04642000  1
  P  P26  1  0.75121600  0.50178000  0.95606700  1
  P  P27  1  0.39279700  0.64697600  0.60679400  1
  P  P28  1  0.90247500  0.64530700  0.39070900  1
  P  P29  1  0.40308500  0.85429400  0.10949800  1
  P  P30  1  0.89437300  0.85520300  0.89297000  1
  O  O31  1  0.07132700  0.03157400  0.15341300  1
  O  O32  1  0.56112000  0.03184500  0.84497400  1
  O  O33  1  0.86035100  0.06812500  0.56578500  1
  O  O34  1  0.35333800  0.06744000  0.44665100  1
  O  O35  1  0.66742200  0.08376000  0.35961200  1
  O  O36  1  0.15484600  0.08039300  0.64609300  1
  O  O37  1  0.60190000  0.15851200  0.07554400  1
  O  O38  1  0.09972500  0.15397300  0.92073100  1
  O  O39  1  0.26859800  0.18379700  0.15152000  1
  O  O40  1  0.76499000  0.17886600  0.83797400  1
  O  O41  1  0.98510200  0.22536800  0.16778000  1
  O  O42  1  0.48030600  0.22838600  0.84060700  1
  O  O43  1  0.98092500  0.26815100  0.67838300  1
  O  O44  1  0.48095100  0.27825900  0.31361000  1
  O  O45  1  0.76291500  0.32098600  0.33112300  1
  O  O46  1  0.26296200  0.31978000  0.66104000  1
  O  O47  1  0.09077100  0.34084700  0.43310800  1
  O  O48  1  0.60075500  0.33726400  0.56807600  1
  O  O49  1  0.17317900  0.41822600  0.15690100  1
  O  O50  1  0.66324700  0.41967200  0.85103800  1
  O  O51  1  0.86299500  0.43663800  0.05304300  1
  O  O52  1  0.36195600  0.42584700  0.95096800  1
  O  O53  1  0.05510200  0.46455200  0.66393300  1
  O  O54  1  0.56420000  0.47103900  0.35113700  1
  O  O55  1  0.42713500  0.53054200  0.65364400  1
  O  O56  1  0.94441800  0.53200600  0.34170800  1
  O  O57  1  0.64156600  0.57466300  0.04942600  1
  O  O58  1  0.14332100  0.56735300  0.95058500  1
  O  O59  1  0.34343500  0.58106200  0.14804100  1
  O  O60  1  0.83172100  0.58372100  0.84574600  1
  O  O61  1  0.39520600  0.66300100  0.43173000  1
  O  O62  1  0.91387700  0.66226500  0.56866000  1
  O  O63  1  0.74011500  0.67924100  0.34099000  1
  O  O64  1  0.23131000  0.68353100  0.66428300  1
  O  O65  1  0.02342200  0.72992500  0.32954300  1
  O  O66  1  0.51517300  0.72214000  0.68647900  1
  O  O67  1  0.52534600  0.77164600  0.16909600  1
  O  O68  1  0.01698600  0.78237200  0.81460100  1
  O  O69  1  0.24107900  0.82137100  0.15868900  1
  O  O70  1  0.73402000  0.81711800  0.83593300  1
  O  O71  1  0.89715300  0.84170000  0.06883600  1
  O  O72  1  0.41347000  0.83969500  0.93139200  1
  O  O73  1  0.84071100  0.92293000  0.35406700  1
  O  O74  1  0.32933000  0.92101800  0.65670200  1
  O  O75  1  0.13931300  0.92385000  0.45037000  1
  O  O76  1  0.64113800  0.92969700  0.55314400  1
  O  O77  1  0.44537000  0.96845500  0.16147700  1
  O  O78  1  0.92503000  0.97450400  0.84644500  1
