# generated using pymatgen
data_LiPm2Ge
_symmetry_space_group_name_H-M   'P 1'
_cell_length_a   5.14731415
_cell_length_b   5.14731784
_cell_length_c   5.14731563
_cell_angle_alpha   60.00008057
_cell_angle_beta   60.00003794
_cell_angle_gamma   60.00007107
_symmetry_Int_Tables_number   1
_chemical_formula_structural   LiPm2Ge
_chemical_formula_sum   'Li1 Pm2 Ge1'
_cell_volume   96.43353451
_cell_formula_units_Z   1
loop_
 _symmetry_equiv_pos_site_id
 _symmetry_equiv_pos_as_xyz
  1  'x, y, z'
loop_
 _atom_site_type_symbol
 _atom_site_label
 _atom_site_symmetry_multiplicity
 _atom_site_fract_x
 _atom_site_fract_y
 _atom_site_fract_z
 _atom_site_occupancy
  Li  Li0  1  0.75000000  0.75000000  0.75000000  1
  Pm  Pm1  1  -0.00000000  0.00000000  0.00000000  1
  Pm  Pm2  1  0.50000100  0.50000100  0.50000100  1
  Ge  Ge3  1  0.24999900  0.24999900  0.24999900  1
