# generated using pymatgen
data_LiScAu2
_symmetry_space_group_name_H-M   'P 1'
_cell_length_a   4.62170387
_cell_length_b   4.62170387
_cell_length_c   4.62169953
_cell_angle_alpha   59.99998957
_cell_angle_beta   59.99988613
_cell_angle_gamma   59.99983420
_symmetry_Int_Tables_number   1
_chemical_formula_structural   LiScAu2
_chemical_formula_sum   'Li1 Sc1 Au2'
_cell_volume   69.80555536
_cell_formula_units_Z   1
loop_
 _symmetry_equiv_pos_site_id
 _symmetry_equiv_pos_as_xyz
  1  'x, y, z'
loop_
 _atom_site_type_symbol
 _atom_site_label
 _atom_site_symmetry_multiplicity
 _atom_site_fract_x
 _atom_site_fract_y
 _atom_site_fract_z
 _atom_site_occupancy
  Li  Li0  1  0.25000000  0.25000000  0.25000000  1
  Sc  Sc1  1  0.74999900  0.74999900  0.75000000  1
  Au  Au2  1  0.49999900  0.49999900  0.49999900  1
  Au  Au3  1  0.00000000  0.00000000  0.99999900  1
