# generated using pymatgen
data_Li2GdTl
_symmetry_space_group_name_H-M   'P 1'
_cell_length_a   4.84281500
_cell_length_b   4.84386721
_cell_length_c   4.84320068
_cell_angle_alpha   60.02397519
_cell_angle_beta   60.01172204
_cell_angle_gamma   60.00641026
_symmetry_Int_Tables_number   1
_chemical_formula_structural   Li2GdTl
_chemical_formula_sum   'Li2 Gd1 Tl1'
_cell_volume   80.36107238
_cell_formula_units_Z   1
loop_
 _symmetry_equiv_pos_site_id
 _symmetry_equiv_pos_as_xyz
  1  'x, y, z'
loop_
 _atom_site_type_symbol
 _atom_site_label
 _atom_site_symmetry_multiplicity
 _atom_site_fract_x
 _atom_site_fract_y
 _atom_site_fract_z
 _atom_site_occupancy
  Li  Li0  1  0.00005834  0.99989971  0.99996865  1
  Li  Li1  1  0.49994279  0.50010120  0.50003118  1
  Gd  Gd2  1  0.25000101  0.25000025  0.25000144  1
  Tl  Tl3  1  0.75000086  0.75000084  0.75000073  1
