# generated using pymatgen
data_LiTm2Rh
_symmetry_space_group_name_H-M   'P 1'
_cell_length_a   4.83547883
_cell_length_b   4.83547878
_cell_length_c   4.83547915
_cell_angle_alpha   60.00118989
_cell_angle_beta   60.00119352
_cell_angle_gamma   60.00120261
_symmetry_Int_Tables_number   1
_chemical_formula_structural   LiTm2Rh
_chemical_formula_sum   'Li1 Tm2 Rh1'
_cell_volume   79.94940842
_cell_formula_units_Z   1
loop_
 _symmetry_equiv_pos_site_id
 _symmetry_equiv_pos_as_xyz
  1  'x, y, z'
loop_
 _atom_site_type_symbol
 _atom_site_label
 _atom_site_symmetry_multiplicity
 _atom_site_fract_x
 _atom_site_fract_y
 _atom_site_fract_z
 _atom_site_occupancy
  Li  Li0  1  0.24999928  0.24999928  0.24999927  1
  Tm  Tm1  1  -0.00000029  -0.00000029  -0.00000029  1
  Tm  Tm2  1  0.50000098  0.50000098  0.50000097  1
  Rh  Rh3  1  0.75000003  0.75000004  0.75000005  1
