# generated using pymatgen
data_Li11Mn12(BO3)12
_symmetry_space_group_name_H-M   'P 1'
_cell_length_a   10.43594800
_cell_length_b   8.88994568
_cell_length_c   8.85187046
_cell_angle_alpha   107.88069534
_cell_angle_beta   98.41556563
_cell_angle_gamma   98.72590840
_symmetry_Int_Tables_number   1
_chemical_formula_structural   Li11Mn12(BO3)12
_chemical_formula_sum   'Li11 Mn12 B12 O36'
_cell_volume   756.09627869
_cell_formula_units_Z   1
loop_
 _symmetry_equiv_pos_site_id
 _symmetry_equiv_pos_as_xyz
  1  'x, y, z'
loop_
 _atom_site_type_symbol
 _atom_site_label
 _atom_site_symmetry_multiplicity
 _atom_site_fract_x
 _atom_site_fract_y
 _atom_site_fract_z
 _atom_site_occupancy
  Li  Li0  1  0.27882000  0.97834500  0.26092100  1
  Li  Li1  1  0.02895400  0.72917800  0.01167000  1
  Li  Li2  1  0.93714400  0.95424000  0.65468200  1
  Li  Li3  1  0.43667500  0.45452300  0.15428500  1
  Li  Li4  1  0.65910300  0.93882100  0.95903600  1
  Li  Li5  1  0.40876800  0.69091600  0.70890200  1
  Li  Li6  1  0.15969700  0.44350200  0.45885700  1
  Li  Li7  1  0.52963600  0.22928200  0.51218100  1
  Li  Li8  1  0.77868500  0.48072100  0.76239600  1
  Li  Li9  1  0.18690300  0.20381600  0.90414500  1
  Li  Li10  1  0.90860300  0.19153100  0.20872100  1
  Mn  Mn11  1  0.06311900  0.43325900  0.07144000  1
  Mn  Mn12  1  0.56614200  0.92933000  0.56998500  1
  Mn  Mn13  1  0.31912000  0.68250900  0.32155200  1
  Mn  Mn14  1  0.01512000  0.66481700  0.64725500  1
  Mn  Mn15  1  0.27170100  0.91294600  0.89892200  1
  Mn  Mn16  1  0.91349800  0.90158100  0.28017000  1
  Mn  Mn17  1  0.66501300  0.65139900  0.03577400  1
  Mn  Mn18  1  0.52308400  0.16442200  0.15091400  1
  Mn  Mn19  1  0.76882800  0.41940500  0.40224200  1
  Mn  Mn20  1  0.16559500  0.15499300  0.52532000  1
  Mn  Mn21  1  0.41508500  0.40344000  0.77684900  1
  Mn  Mn22  1  0.81108400  0.18168500  0.82180100  1
  B  B23  1  0.20910200  0.87469200  0.54052600  1
  B  B24  1  0.54084400  0.87646200  0.20290600  1
  B  B25  1  0.70880800  0.37563800  0.04254400  1
  B  B26  1  0.96306300  0.62353700  0.29171400  1
  B  B27  1  0.00092700  0.00007900  0.00149700  1
  B  B28  1  0.49431600  0.49584600  0.49930100  1
  B  B29  1  0.75192500  0.75186200  0.75860300  1
  B  B30  1  0.24988800  0.24967000  0.24903300  1
  B  B31  1  0.04081800  0.37531700  0.70847100  1
  B  B32  1  0.29092600  0.62656600  0.95676500  1
  B  B33  1  0.45872500  0.12426600  0.79115600  1
  B  B34  1  0.79057100  0.12648000  0.45722100  1
  O  O35  1  0.11737000  0.92223600  0.03670700  1
  O  O36  1  0.16932300  0.95007100  0.42179700  1
  O  O37  1  0.50283600  0.95505600  0.08893900  1
  O  O38  1  0.45377700  0.86778600  0.30794200  1
  O  O39  1  0.20091200  0.62040700  0.05868700  1
  O  O40  1  0.12159600  0.86912000  0.64646800  1
  O  O41  1  0.09094500  0.55729700  0.30012800  1
  O  O42  1  0.33456600  0.80673800  0.55200000  1
  O  O43  1  0.66568000  0.81032700  0.20544800  1
  O  O44  1  0.92126100  0.70035800  0.17330000  1
  O  O45  1  0.00867700  0.45016500  0.59113800  1
  O  O46  1  0.25767600  0.70098700  0.83832400  1
  O  O47  1  0.23728300  0.31519200  0.12167100  1
  O  O48  1  0.74880500  0.83117700  0.64879800  1
  O  O49  1  0.47075000  0.55219700  0.36737500  1
  O  O50  1  0.64236500  0.75250000  0.84438300  1
  O  O51  1  0.14477600  0.25957000  0.33792500  1
  O  O52  1  0.39395300  0.50815600  0.59399900  1
  O  O53  1  0.61720100  0.36617000  0.14395200  1
  O  O54  1  0.87826300  0.61370600  0.39532700  1
  O  O55  1  0.83306000  0.30664200  0.05328400  1
  O  O56  1  0.41654300  0.55686300  0.97375400  1
  O  O57  1  0.16496500  0.30456700  0.72469300  1
  O  O58  1  0.61569500  0.42177300  0.54061300  1
  O  O59  1  0.36714600  0.17283800  0.28775000  1
  O  O60  1  0.86711300  0.67162600  0.79044500  1
  O  O61  1  0.67425200  0.45609600  0.92913300  1
  O  O62  1  0.42237900  0.20135200  0.67448800  1
  O  O63  1  0.75844700  0.20234300  0.34021300  1
  O  O64  1  0.89584000  0.00789500  0.09038900  1
  O  O65  1  0.70039200  0.11976500  0.55952500  1
  O  O66  1  0.95019100  0.36952700  0.81110600  1
  O  O67  1  0.36905500  0.11748800  0.89529500  1
  O  O68  1  0.58347700  0.05559600  0.80367200  1
  O  O69  1  0.91500500  0.05579800  0.47229700  1
  O  O70  1  0.99134900  0.07039200  0.87834400  1
