# generated using pymatgen
data_Li5Mn6(BO3)6
_symmetry_space_group_name_H-M   'P 1'
_cell_length_a   10.43447600
_cell_length_b   8.87872478
_cell_length_c   8.83475219
_cell_angle_alpha   108.44315683
_cell_angle_beta   98.71572081
_cell_angle_gamma   98.22384335
_symmetry_Int_Tables_number   1
_chemical_formula_structural   Li5Mn6(BO3)6
_chemical_formula_sum   'Li10 Mn12 B12 O36'
_cell_volume   751.40125084
_cell_formula_units_Z   2
loop_
 _symmetry_equiv_pos_site_id
 _symmetry_equiv_pos_as_xyz
  1  'x, y, z'
loop_
 _atom_site_type_symbol
 _atom_site_label
 _atom_site_symmetry_multiplicity
 _atom_site_fract_x
 _atom_site_fract_y
 _atom_site_fract_z
 _atom_site_occupancy
  Li  Li0  1  0.18970100  0.20460900  0.90233000  1
  Li  Li1  1  0.53397700  0.23112800  0.51123500  1
  Li  Li2  1  0.77584300  0.48001300  0.76518900  1
  Li  Li3  1  0.16775400  0.44556300  0.45871100  1
  Li  Li4  1  0.43836100  0.45533300  0.16046800  1
  Li  Li5  1  0.40874700  0.69084400  0.70793200  1
  Li  Li6  1  0.02625300  0.72719300  0.01463400  1
  Li  Li7  1  0.65647300  0.93469900  0.95164300  1
  Li  Li8  1  0.93311900  0.95518900  0.65154500  1
  Li  Li9  1  0.28170100  0.97936600  0.25829900  1
  Mn  Mn10  1  0.81430800  0.17513800  0.83566100  1
  Mn  Mn11  1  0.16224400  0.15891600  0.51545400  1
  Mn  Mn12  1  0.52874600  0.16236100  0.14876400  1
  Mn  Mn13  1  0.41293300  0.40418200  0.77596100  1
  Mn  Mn14  1  0.78374400  0.41144800  0.39864200  1
  Mn  Mn15  1  0.06429300  0.42572500  0.07656300  1
  Mn  Mn16  1  0.65991200  0.64959700  0.04764300  1
  Mn  Mn17  1  0.00749300  0.66783500  0.64965600  1
  Mn  Mn18  1  0.31826200  0.68422900  0.32069300  1
  Mn  Mn19  1  0.91050100  0.91291800  0.27055000  1
  Mn  Mn20  1  0.27251000  0.91453100  0.89322800  1
  Mn  Mn21  1  0.56472300  0.92914300  0.57041600  1
  B  B22  1  0.45956800  0.12687300  0.78969200  1
  B  B23  1  0.79058300  0.13244300  0.46793400  1
  B  B24  1  0.26150700  0.25233700  0.25011100  1
  B  B25  1  0.03446500  0.37274100  0.70669000  1
  B  B26  1  0.71283200  0.38407800  0.05028600  1
  B  B27  1  0.49998000  0.49782100  0.49980700  1
  B  B28  1  0.95207400  0.61542600  0.28818700  1
  B  B29  1  0.28966000  0.62808900  0.95796000  1
  B  B30  1  0.74969600  0.74884900  0.76716300  1
  B  B31  1  0.20511300  0.87467900  0.53410300  1
  B  B32  1  0.53924700  0.87386200  0.19845900  1
  B  B33  1  0.00336100  0.99258500  0.99243900  1
  O  O34  1  0.00032800  0.06846700  0.87393100  1
  O  O35  1  0.57764300  0.05164600  0.79980900  1
  O  O36  1  0.90948100  0.06032800  0.46736200  1
  O  O37  1  0.70415700  0.11861600  0.57144700  1
  O  O38  1  0.37320100  0.12308900  0.89646300  1
  O  O39  1  0.42611400  0.20668500  0.67536500  1
  O  O40  1  0.75101700  0.21819000  0.36082300  1
  O  O41  1  0.37320100  0.16919100  0.28229000  1
  O  O42  1  0.94720200  0.36849400  0.80998700  1
  O  O43  1  0.16314400  0.30867000  0.72202200  1
  O  O44  1  0.82612400  0.31113000  0.04537500  1
  O  O45  1  0.17257500  0.27436400  0.34953400  1
  O  O46  1  0.67191400  0.46971900  0.94108100  1
  O  O47  1  0.24434600  0.31486800  0.11765800  1
  O  O48  1  0.63226700  0.37807000  0.16349900  1
  O  O49  1  0.62352300  0.42505300  0.53594100  1
  O  O50  1  0.99665200  0.44574200  0.58241900  1
  O  O51  1  0.42231300  0.56318800  0.98325900  1
  O  O52  1  0.40417300  0.51138800  0.59888600  1
  O  O53  1  0.86067600  0.59734900  0.38905800  1
  O  O54  1  0.46760700  0.55408500  0.36617200  1
  O  O55  1  0.86574900  0.66905700  0.79555700  1
  O  O56  1  0.08459300  0.55779900  0.30151700  1
  O  O57  1  0.90488300  0.69228400  0.17090000  1
  O  O58  1  0.25462300  0.69715300  0.83411600  1
  O  O59  1  0.64006800  0.74532700  0.85188600  1
  O  O60  1  0.19787700  0.61775400  0.05734500  1
  O  O61  1  0.74707400  0.83113800  0.65888200  1
  O  O62  1  0.33106000  0.80655100  0.54829100  1
  O  O63  1  0.66044700  0.80113300  0.20360800  1
  O  O64  1  0.45617500  0.86994900  0.30609500  1
  O  O65  1  0.11465200  0.86564600  0.63716100  1
  O  O66  1  0.88870800  0.98966300  0.06682000  1
  O  O67  1  0.16824500  0.95236900  0.41746600  1
  O  O68  1  0.50884900  0.95281900  0.08440800  1
  O  O69  1  0.12374600  0.91736300  0.03328000  1
