# generated using pymatgen
data_Li5Mn6(BO3)6
_symmetry_space_group_name_H-M   'P 1'
_cell_length_a   10.48286100
_cell_length_b   8.85557528
_cell_length_c   8.79945347
_cell_angle_alpha   107.65539006
_cell_angle_beta   98.55014378
_cell_angle_gamma   98.92468044
_symmetry_Int_Tables_number   1
_chemical_formula_structural   Li5Mn6(BO3)6
_chemical_formula_sum   'Li10 Mn12 B12 O36'
_cell_volume   752.16377171
_cell_formula_units_Z   2
loop_
 _symmetry_equiv_pos_site_id
 _symmetry_equiv_pos_as_xyz
  1  'x, y, z'
loop_
 _atom_site_type_symbol
 _atom_site_label
 _atom_site_symmetry_multiplicity
 _atom_site_fract_x
 _atom_site_fract_y
 _atom_site_fract_z
 _atom_site_occupancy
  Li  Li0  1  0.90332800  0.18530100  0.20698500  1
  Li  Li1  1  0.18595200  0.19907200  0.89772600  1
  Li  Li2  1  0.77638200  0.48247300  0.76542800  1
  Li  Li3  1  0.15285800  0.44640600  0.45598700  1
  Li  Li4  1  0.43629000  0.45144800  0.14986700  1
  Li  Li5  1  0.40685000  0.69256000  0.70823200  1
  Li  Li6  1  0.03062600  0.73337000  0.01614800  1
  Li  Li7  1  0.66693200  0.94285700  0.96380800  1
  Li  Li8  1  0.93776600  0.96119600  0.66347300  1
  Li  Li9  1  0.27653900  0.97380000  0.25122600  1
  Mn  Mn10  1  0.79957600  0.19039600  0.81428600  1
  Mn  Mn11  1  0.18695500  0.16029400  0.51045700  1
  Mn  Mn12  1  0.51900200  0.16273600  0.16182300  1
  Mn  Mn13  1  0.41850100  0.40479900  0.76884300  1
  Mn  Mn14  1  0.76211600  0.41795500  0.40967600  1
  Mn  Mn15  1  0.06435100  0.43204000  0.07099300  1
  Mn  Mn16  1  0.66310900  0.65469400  0.03429600  1
  Mn  Mn17  1  0.00744300  0.66700000  0.65153900  1
  Mn  Mn18  1  0.31682000  0.68289000  0.31644300  1
  Mn  Mn19  1  0.91827300  0.89619100  0.29274800  1
  Mn  Mn20  1  0.27560400  0.91080400  0.89709100  1
  Mn  Mn21  1  0.57123400  0.92687800  0.56995400  1
  B  B22  1  0.99993800  0.00048600  0.00421200  1
  B  B23  1  0.46358800  0.12838700  0.79458800  1
  B  B24  1  0.80515900  0.12314200  0.46181700  1
  B  B25  1  0.23993900  0.24867600  0.23648400  1
  B  B26  1  0.03590100  0.36687400  0.70148000  1
  B  B27  1  0.70597700  0.37022400  0.04052500  1
  B  B28  1  0.49077100  0.50185100  0.49942900  1
  B  B29  1  0.96049400  0.62693400  0.29693900  1
  B  B30  1  0.28716000  0.62463100  0.95153500  1
  B  B31  1  0.75214900  0.75268900  0.76554000  1
  B  B32  1  0.20685100  0.87315000  0.53760100  1
  B  B33  1  0.55144500  0.88395200  0.20941000  1
  O  O34  1  0.98333300  0.07659600  0.88594500  1
  O  O35  1  0.60001900  0.06667800  0.81005500  1
  O  O36  1  0.92645300  0.05013500  0.45804100  1
  O  O37  1  0.90116300  0.00223700  0.10147100  1
  O  O38  1  0.73807900  0.10912400  0.58364800  1
  O  O39  1  0.37293500  0.11184700  0.89588700  1
  O  O40  1  0.42727900  0.20338600  0.67990500  1
  O  O41  1  0.75912500  0.19902500  0.35048700  1
  O  O42  1  0.34150600  0.16112000  0.26931600  1
  O  O43  1  0.94004800  0.35519000  0.80473100  1
  O  O44  1  0.15852100  0.29714000  0.71407000  1
  O  O45  1  0.82170900  0.29011500  0.03543100  1
  O  O46  1  0.13592200  0.26730700  0.32720300  1
  O  O47  1  0.67995100  0.45574500  0.93586900  1
  O  O48  1  0.62260000  0.36113000  0.14898400  1
  O  O49  1  0.23682300  0.31610700  0.11162300  1
  O  O50  1  0.62102300  0.44254400  0.55250600  1
  O  O51  1  0.00379700  0.45011800  0.59550200  1
  O  O52  1  0.41186700  0.55440600  0.97049800  1
  O  O53  1  0.38442900  0.51313800  0.59017700  1
  O  O54  1  0.46104600  0.54994300  0.35907500  1
  O  O55  1  0.87276500  0.61485300  0.39856800  1
  O  O56  1  0.86644300  0.67257500  0.80276800  1
  O  O57  1  0.07968200  0.55513400  0.29291700  1
  O  O58  1  0.25607100  0.70038600  0.83460300  1
  O  O59  1  0.93100700  0.71639600  0.18993500  1
  O  O60  1  0.63886900  0.75712200  0.84740800  1
  O  O61  1  0.19353100  0.61917200  0.05248900  1
  O  O62  1  0.75419500  0.82963200  0.65385000  1
  O  O63  1  0.33849400  0.81263600  0.55365400  1
  O  O64  1  0.68483100  0.82348900  0.22522800  1
  O  O65  1  0.45841900  0.87133300  0.30918600  1
  O  O66  1  0.11826700  0.87014400  0.64198700  1
  O  O67  1  0.16063000  0.93960700  0.40788100  1
  O  O68  1  0.51139900  0.95446000  0.08889700  1
  O  O69  1  0.11512300  0.92066700  0.02679800  1
