# generated using pymatgen
data_Li5Mn6(BO3)6
_symmetry_space_group_name_H-M   'P 1'
_cell_length_a   10.47346900
_cell_length_b   8.81138779
_cell_length_c   8.87269092
_cell_angle_alpha   107.88670069
_cell_angle_beta   98.84830565
_cell_angle_gamma   98.50441137
_symmetry_Int_Tables_number   1
_chemical_formula_structural   Li5Mn6(BO3)6
_chemical_formula_sum   'Li10 Mn12 B12 O36'
_cell_volume   753.21246872
_cell_formula_units_Z   2
loop_
 _symmetry_equiv_pos_site_id
 _symmetry_equiv_pos_as_xyz
  1  'x, y, z'
loop_
 _atom_site_type_symbol
 _atom_site_label
 _atom_site_symmetry_multiplicity
 _atom_site_fract_x
 _atom_site_fract_y
 _atom_site_fract_z
 _atom_site_occupancy
  Li  Li0  1  0.91372500  0.18924600  0.20745700  1
  Li  Li1  1  0.18788000  0.20587200  0.90630500  1
  Li  Li2  1  0.52274800  0.22731600  0.50580400  1
  Li  Li3  1  0.15257100  0.43875600  0.45543100  1
  Li  Li4  1  0.43720100  0.45258100  0.15252600  1
  Li  Li5  1  0.40586500  0.69003000  0.70385800  1
  Li  Li6  1  0.68357000  0.70492600  0.39946000  1
  Li  Li7  1  0.02882200  0.73380000  0.01361200  1
  Li  Li8  1  0.93866100  0.95330000  0.65989300  1
  Li  Li9  1  0.27885900  0.98123600  0.25889000  1
  Mn  Mn10  1  0.80552700  0.18963100  0.82010400  1
  Mn  Mn11  1  0.16745300  0.15192400  0.52363700  1
  Mn  Mn12  1  0.53765800  0.15574400  0.14649600  1
  Mn  Mn13  1  0.42527900  0.41045900  0.76933600  1
  Mn  Mn14  1  0.76744400  0.41430400  0.41809900  1
  Mn  Mn15  1  0.06017300  0.43649000  0.06887300  1
  Mn  Mn16  1  0.66540200  0.65994100  0.01543300  1
  Mn  Mn17  1  0.02241100  0.66001800  0.65502300  1
  Mn  Mn18  1  0.30773800  0.68500700  0.32311100  1
  Mn  Mn19  1  0.90884900  0.90540100  0.27176000  1
  Mn  Mn20  1  0.27756100  0.90915200  0.89931100  1
  Mn  Mn21  1  0.56426200  0.92627900  0.59101600  1
  B  B22  1  0.79169300  0.12400400  0.46404700  1
  B  B23  1  0.47166800  0.13342900  0.79741800  1
  B  B24  1  0.00608500  0.00507900  0.00286700  1
  B  B25  1  0.25372500  0.25094500  0.24626200  1
  B  B26  1  0.04491400  0.36281700  0.70719200  1
  B  B27  1  0.70251500  0.36694600  0.04124700  1
  B  B28  1  0.48715600  0.49900200  0.48983500  1
  B  B29  1  0.95205400  0.62279800  0.29020600  1
  B  B30  1  0.29289300  0.62480100  0.95767400  1
  B  B31  1  0.75278300  0.74917800  0.74416200  1
  B  B32  1  0.54099400  0.88177900  0.21911900  1
  B  B33  1  0.20654500  0.87754600  0.54221300  1
  O  O34  1  0.98437500  0.07305000  0.87362900  1
  O  O35  1  0.91559700  0.05811400  0.47903900  1
  O  O36  1  0.91817800  0.01902000  0.10533700  1
  O  O37  1  0.60478100  0.07373400  0.81496000  1
  O  O38  1  0.70746800  0.12710600  0.57428500  1
  O  O39  1  0.38884700  0.12416900  0.90944400  1
  O  O40  1  0.74738200  0.19171900  0.33652000  1
  O  O41  1  0.42325500  0.19973300  0.67334000  1
  O  O42  1  0.36925700  0.17201700  0.27517000  1
  O  O43  1  0.95671500  0.34381800  0.81260900  1
  O  O44  1  0.82559700  0.29557800  0.04337500  1
  O  O45  1  0.17540200  0.30276700  0.72229600  1
  O  O46  1  0.15200600  0.25932400  0.33972500  1
  O  O47  1  0.66859200  0.45184900  0.94010500  1
  O  O48  1  0.61349000  0.34618900  0.14754800  1
  O  O49  1  0.58948800  0.41239500  0.51841900  1
  O  O50  1  0.23827000  0.32194000  0.12275300  1
  O  O51  1  0.00476900  0.44094100  0.59361300  1
  O  O52  1  0.41392200  0.55368800  0.97413300  1
  O  O53  1  0.38155200  0.51113100  0.57826300  1
  O  O54  1  0.86358200  0.61148800  0.39575500  1
  O  O55  1  0.48476800  0.57231500  0.36877400  1
  O  O56  1  0.88224600  0.68971900  0.79481900  1
  O  O57  1  0.07465500  0.55227600  0.29872300  1
  O  O58  1  0.63413800  0.74390900  0.81537200  1
  O  O59  1  0.26318600  0.70018700  0.83858100  1
  O  O60  1  0.91994600  0.70420500  0.17824300  1
  O  O61  1  0.19916200  0.62185500  0.05887700  1
  O  O62  1  0.74155700  0.81854000  0.61636300  1
  O  O63  1  0.65830200  0.80948400  0.21996900  1
  O  O64  1  0.32992800  0.80762500  0.55607900  1
  O  O65  1  0.45399400  0.87418300  0.32455000  1
  O  O66  1  0.12045300  0.87171900  0.64949900  1
  O  O67  1  0.17077400  0.95253400  0.42327700  1
  O  O68  1  0.50190700  0.96440400  0.10701400  1
  O  O69  1  0.12253200  0.92659700  0.03098900  1
