# generated using pymatgen
data_Li4ZrF8
_symmetry_space_group_name_H-M   'P 1'
_cell_length_a   5.60911294
_cell_length_b   9.48693900
_cell_length_c   9.54025937
_cell_angle_alpha   90.00000000
_cell_angle_beta   90.00000000
_cell_angle_gamma   90.00000000
_symmetry_Int_Tables_number   1
_chemical_formula_structural   Li4ZrF8
_chemical_formula_sum   'Li16 Zr4 F32'
_cell_volume   507.66880134
_cell_formula_units_Z   4
loop_
 _symmetry_equiv_pos_site_id
 _symmetry_equiv_pos_as_xyz
  1  'x, y, z'
loop_
 _atom_site_type_symbol
 _atom_site_label
 _atom_site_symmetry_multiplicity
 _atom_site_fract_x
 _atom_site_fract_y
 _atom_site_fract_z
 _atom_site_occupancy
  Li  Li0  1  0.11791249  0.37010624  0.05857640  1
  Li  Li1  1  0.61791249  0.12989376  0.94142360  1
  Li  Li2  1  0.38208751  0.87010624  0.44142360  1
  Li  Li3  1  0.88208751  0.62989376  0.55857640  1
  Li  Li4  1  0.88208751  0.62989376  0.94142360  1
  Li  Li5  1  0.38208751  0.87010624  0.05857640  1
  Li  Li6  1  0.61791249  0.12989376  0.55857640  1
  Li  Li7  1  0.11791249  0.37010624  0.44142360  1
  Li  Li8  1  0.62984551  0.39816820  0.08173375  1
  Li  Li9  1  0.12984551  0.10183180  0.91826625  1
  Li  Li10  1  0.87015449  0.89816820  0.41826625  1
  Li  Li11  1  0.37015449  0.60183180  0.58173375  1
  Li  Li12  1  0.37015449  0.60183180  0.91826625  1
  Li  Li13  1  0.87015449  0.89816820  0.08173375  1
  Li  Li14  1  0.12984551  0.10183180  0.58173375  1
  Li  Li15  1  0.62984551  0.39816820  0.41826625  1
  Zr  Zr16  1  0.37008456  0.13507086  0.25000000  1
  Zr  Zr17  1  0.62991544  0.86492914  0.75000000  1
  Zr  Zr18  1  0.12991544  0.63507086  0.25000000  1
  Zr  Zr19  1  0.87008456  0.36492914  0.75000000  1
  F  F20  1  0.85586580  0.98097768  0.61574813  1
  F  F21  1  0.37803437  0.70958369  0.75000000  1
  F  F22  1  0.87803437  0.79041631  0.25000000  1
  F  F23  1  0.12196563  0.20958369  0.75000000  1
  F  F24  1  0.14413420  0.01902232  0.11574813  1
  F  F25  1  0.64413420  0.48097768  0.88425187  1
  F  F26  1  0.35586580  0.51902232  0.38425187  1
  F  F27  1  0.64413420  0.48097768  0.61574813  1
  F  F28  1  0.85586580  0.98097768  0.88425187  1
  F  F29  1  0.35586580  0.51902232  0.11574813  1
  F  F30  1  0.10504337  0.47780935  0.62005776  1
  F  F31  1  0.14413420  0.01902232  0.38425187  1
  F  F32  1  0.60504337  0.02219065  0.12005776  1
  F  F33  1  0.10504337  0.47780935  0.87994224  1
  F  F34  1  0.89495663  0.52219065  0.37994224  1
  F  F35  1  0.39495663  0.97780935  0.62005776  1
  F  F36  1  0.39495663  0.97780935  0.87994224  1
  F  F37  1  0.89495663  0.52219065  0.12005776  1
  F  F38  1  0.88235512  0.71055576  0.75000000  1
  F  F39  1  0.60504337  0.02219065  0.37994224  1
  F  F40  1  0.37168735  0.23537572  0.46449538  1
  F  F41  1  0.87168735  0.26462428  0.53550462  1
  F  F42  1  0.12831265  0.73537572  0.03550462  1
  F  F43  1  0.62831265  0.76462428  0.96449538  1
  F  F44  1  0.62831265  0.76462428  0.53550462  1
  F  F45  1  0.12831265  0.73537572  0.46449538  1
  F  F46  1  0.87168735  0.26462428  0.96449538  1
  F  F47  1  0.37168735  0.23537572  0.03550462  1
  F  F48  1  0.11764488  0.28944424  0.25000000  1
  F  F49  1  0.61764488  0.21055576  0.75000000  1
  F  F50  1  0.38235512  0.78944424  0.25000000  1
  F  F51  1  0.62196563  0.29041631  0.25000000  1
