# generated using pymatgen
data_Li5V2P5O18
_symmetry_space_group_name_H-M   'P 1'
_cell_length_a   9.36299200
_cell_length_b   10.61188918
_cell_length_c   6.51391339
_cell_angle_alpha   93.14804257
_cell_angle_beta   91.48105271
_cell_angle_gamma   96.47665571
_symmetry_Int_Tables_number   1
_chemical_formula_structural   Li5V2P5O18
_chemical_formula_sum   'Li10 V4 P10 O36'
_cell_volume   641.78015872
_cell_formula_units_Z   2
loop_
 _symmetry_equiv_pos_site_id
 _symmetry_equiv_pos_as_xyz
  1  'x, y, z'
loop_
 _atom_site_type_symbol
 _atom_site_label
 _atom_site_symmetry_multiplicity
 _atom_site_fract_x
 _atom_site_fract_y
 _atom_site_fract_z
 _atom_site_occupancy
  Li  Li0  1  0.87399000  0.98247000  0.04442700  1
  Li  Li1  1  0.35848600  0.82760400  0.13072200  1
  Li  Li2  1  0.65955100  0.12010300  0.21046900  1
  Li  Li3  1  0.58815100  0.55429300  0.27584800  1
  Li  Li4  1  0.86225300  0.34313500  0.36734300  1
  Li  Li5  1  0.13774700  0.65686500  0.63265700  1
  Li  Li6  1  0.41184900  0.44570700  0.72415200  1
  Li  Li7  1  0.34044900  0.87989700  0.78953100  1
  Li  Li8  1  0.64151400  0.17239600  0.86927800  1
  Li  Li9  1  0.12601000  0.01753000  0.95557300  1
  V  V10  1  0.05041500  0.67384800  0.23260400  1
  V  V11  1  0.40354200  0.23121400  0.35647600  1
  V  V12  1  0.59645800  0.76878600  0.64352400  1
  V  V13  1  0.94958500  0.32615200  0.76739600  1
  P  P14  1  0.80034800  0.48267700  0.04677700  1
  P  P15  1  0.40131000  0.22331900  0.01332700  1
  P  P16  1  0.10143600  0.17157900  0.27184900  1
  P  P17  1  0.82499400  0.83728500  0.41854600  1
  P  P18  1  0.34887000  0.71993600  0.41696100  1
  P  P19  1  0.65113000  0.28006400  0.58303900  1
  P  P20  1  0.17500600  0.16271500  0.58145400  1
  P  P21  1  0.89856400  0.82842100  0.72815100  1
  P  P22  1  0.59869000  0.77668100  0.98667300  1
  P  P23  1  0.19965200  0.51732300  0.95322300  1
  O  O24  1  0.68796100  0.97010300  0.01596400  1
  O  O25  1  0.90562700  0.65804900  0.07689100  1
  O  O26  1  0.31876900  0.41839500  0.03609500  1
  O  O27  1  0.16694400  0.67613900  0.06781100  1
  O  O28  1  0.52427200  0.73225700  0.11204400  1
  O  O29  1  0.75460500  0.38982800  0.18005600  1
  O  O30  1  0.48252700  0.21878600  0.16126800  1
  O  O31  1  0.04601800  0.99138200  0.16982200  1
  O  O32  1  0.81417700  0.02266800  0.32540300  1
  O  O33  1  0.23848800  0.22785700  0.24997200  1
  O  O34  1  0.91667400  0.67711100  0.36978700  1
  O  O35  1  0.02127600  0.35915300  0.26062000  1
  O  O36  1  0.38720900  0.91917600  0.34006400  1
  O  O37  1  0.41375100  0.53945200  0.34785400  1
  O  O38  1  0.59611800  0.25724100  0.42137200  1
  O  O39  1  0.69627900  0.73414200  0.44815700  1
  O  O40  1  0.20195500  0.67935700  0.39647800  1
  O  O41  1  0.10084900  0.07756300  0.42763300  1
  O  O42  1  0.89915100  0.92243700  0.57236700  1
  O  O43  1  0.79804500  0.32064300  0.60352200  1
  O  O44  1  0.30372100  0.26585800  0.55184300  1
  O  O45  1  0.40388200  0.74275900  0.57862800  1
  O  O46  1  0.58624900  0.46054800  0.65214600  1
  O  O47  1  0.61279100  0.08082400  0.65993600  1
  O  O48  1  0.97872400  0.64084700  0.73938000  1
  O  O49  1  0.08332600  0.32288900  0.63021300  1
  O  O50  1  0.76151200  0.77214300  0.75002800  1
  O  O51  1  0.18582300  0.97733200  0.67459700  1
  O  O52  1  0.95398200  0.00861800  0.83017800  1
  O  O53  1  0.51747300  0.78121400  0.83873200  1
  O  O54  1  0.24539500  0.61017200  0.81994400  1
  O  O55  1  0.47572800  0.26774300  0.88795600  1
  O  O56  1  0.83305600  0.32386100  0.93218900  1
  O  O57  1  0.68123100  0.58160500  0.96390500  1
  O  O58  1  0.09437300  0.34195100  0.92310900  1
  O  O59  1  0.31203900  0.02989700  0.98403600  1
