# generated using pymatgen
data_Li3Cu(PO4)2
_symmetry_space_group_name_H-M   'P 1'
_cell_length_a   5.06133700
_cell_length_b   6.87973206
_cell_length_c   9.82622262
_cell_angle_alpha   89.59950562
_cell_angle_beta   89.46000347
_cell_angle_gamma   89.83636732
_symmetry_Int_Tables_number   1
_chemical_formula_structural   Li3Cu(PO4)2
_chemical_formula_sum   'Li6 Cu2 P4 O16'
_cell_volume   342.13049811
_cell_formula_units_Z   2
loop_
 _symmetry_equiv_pos_site_id
 _symmetry_equiv_pos_as_xyz
  1  'x, y, z'
loop_
 _atom_site_type_symbol
 _atom_site_label
 _atom_site_symmetry_multiplicity
 _atom_site_fract_x
 _atom_site_fract_y
 _atom_site_fract_z
 _atom_site_occupancy
  Li  Li0  1  0.24811000  0.32475600  0.00368100  1
  Li  Li1  1  0.25096800  0.31376800  0.49994500  1
  Li  Li2  1  0.26158300  0.68449500  0.24949100  1
  Li  Li3  1  0.24489900  0.67845200  0.75075000  1
  Li  Li4  1  0.74098200  0.68966000  0.74125300  1
  Li  Li5  1  0.75494600  0.30906500  0.50628900  1
  Cu  Cu6  1  0.75479400  0.29980000  0.99667400  1
  Cu  Cu7  1  0.76019100  0.70151900  0.27422000  1
  P  P8  1  0.00314500  0.81800900  0.49857400  1
  P  P9  1  0.00298500  0.80512400  0.99859000  1
  P  P10  1  0.48718500  0.17986200  0.74899600  1
  P  P11  1  0.50190500  0.19293900  0.24451700  1
  O  O12  1  0.00247500  0.11551800  0.52488400  1
  O  O13  1  0.00914000  0.78499100  0.33562100  1
  O  O14  1  0.18292300  0.67700500  0.55389200  1
  O  O15  1  0.19103800  0.69671800  0.05816200  1
  O  O16  1  0.31358800  0.30987100  0.29954100  1
  O  O17  1  0.30762100  0.31302700  0.81138800  1
  O  O18  1  0.50749300  0.23521700  0.08578400  1
  O  O19  1  0.49513600  0.88177400  0.77715200  1
  O  O20  1  0.50438200  0.24125800  0.59574300  1
  O  O21  1  0.51256100  0.88997000  0.27798700  1
  O  O22  1  0.67376200  0.31703700  0.81405700  1
  O  O23  1  0.68586500  0.32666000  0.30470600  1
  O  O24  1  0.81123200  0.68388100  0.54334300  1
  O  O25  1  0.82111400  0.66717500  0.07389500  1
  O  O26  1  0.98922800  0.11050000  0.02995000  1
  O  O27  1  0.98137800  0.75094400  0.84715900  1
