# generated using pymatgen
data_LiMg
_symmetry_space_group_name_H-M   'P 1'
_cell_length_a   7.59035811
_cell_length_b   7.59035811
_cell_length_c   4.92226813
_cell_angle_alpha   90.00000000
_cell_angle_beta   90.00000000
_cell_angle_gamma   154.87711890
_symmetry_Int_Tables_number   1
_chemical_formula_structural   LiMg
_chemical_formula_sum   'Li3 Mg3'
_cell_volume   120.40095357
_cell_formula_units_Z   3
loop_
 _symmetry_equiv_pos_site_id
 _symmetry_equiv_pos_as_xyz
  1  'x, y, z'
loop_
 _atom_site_type_symbol
 _atom_site_label
 _atom_site_symmetry_multiplicity
 _atom_site_fract_x
 _atom_site_fract_y
 _atom_site_fract_z
 _atom_site_occupancy
  Li  Li0  1  0.69165725  0.30834275  -0.00000000  1
  Li  Li1  1  0.52875686  0.47124314  0.50000000  1
  Li  Li2  1  0.86623181  0.13376819  0.50000000  1
  Mg  Mg3  1  0.02990393  0.97009607  -0.00000000  1
  Mg  Mg4  1  0.35358040  0.64641960  0.00000000  1
  Mg  Mg5  1  0.19654374  0.80345626  0.50000000  1
