# generated using pymatgen
data_Li2MgSiO4
_symmetry_space_group_name_H-M   'P 1'
_cell_length_a   5.07057200
_cell_length_b   10.80212800
_cell_length_c   8.10218977
_cell_angle_alpha   90.00000000
_cell_angle_beta   128.29428423
_cell_angle_gamma   90.00000000
_symmetry_Int_Tables_number   1
_chemical_formula_structural   Li2MgSiO4
_chemical_formula_sum   'Li8 Mg4 Si4 O16'
_cell_volume   348.29626298
_cell_formula_units_Z   4
loop_
 _symmetry_equiv_pos_site_id
 _symmetry_equiv_pos_as_xyz
  1  'x, y, z'
loop_
 _atom_type_symbol
 _atom_type_oxidation_number
  Li+  1.0
  Mg2+  2.0
  Si4+  4.0
  O2-  -2.0
loop_
 _atom_site_type_symbol
 _atom_site_label
 _atom_site_symmetry_multiplicity
 _atom_site_fract_x
 _atom_site_fract_y
 _atom_site_fract_z
 _atom_site_occupancy
  Li+  Li  1  0.68898300  0.16207800  0.99574900  1
  Li+  Li  1  0.31101700  0.66207800  0.50425100  1
  Li+  Li  1  0.31101700  0.83792200  0.00425100  1
  Li+  Li  1  0.68898300  0.33792200  0.49574900  1
  Li+  Li  1  0.53288600  0.07394600  0.23694500  1
  Li+  Li  1  0.46711400  0.57394600  0.26305500  1
  Li+  Li  1  0.46711400  0.92605400  0.76305500  1
  Li+  Li  1  0.53288600  0.42605400  0.73694500  1
  Mg2+  Mg  1  0.19052700  0.16447400  0.49845500  1
  Mg2+  Mg  1  0.80947300  0.83552600  0.50154500  1
  Mg2+  Mg  1  0.19052700  0.33552600  0.99845500  1
  Mg2+  Mg  1  0.80947300  0.66447400  0.00154500  1
  Si4+  Si  1  0.06339400  0.91257000  0.25224400  1
  Si4+  Si  1  0.06339400  0.58743000  0.75224400  1
  Si4+  Si  1  0.93660600  0.08743000  0.74775600  1
  Si4+  Si  1  0.93660600  0.41257000  0.24775600  1
  O2-  O  1  0.74668600  0.83861400  0.04086400  1
  O2-  O  1  0.25331400  0.16138600  0.95913600  1
  O2-  O  1  0.74668600  0.66138600  0.54086400  1
  O2-  O  1  0.60739500  0.40893900  0.24474600  1
  O2-  O  1  0.25331400  0.33861400  0.45913600  1
  O2-  O  1  0.83252400  0.15939400  0.53360500  1
  O2-  O  1  0.16747600  0.65939400  0.96639500  1
  O2-  O  1  0.16747600  0.84060600  0.46639500  1
  O2-  O  1  0.04530300  0.55685600  0.25136000  1
  O2-  O  1  0.39260500  0.90893900  0.25525400  1
  O2-  O  1  0.39260500  0.59106100  0.75525400  1
  O2-  O  1  0.60739500  0.09106100  0.74474600  1
  O2-  O  1  0.04530300  0.94314400  0.75136000  1
  O2-  O  1  0.95469700  0.05685600  0.24864000  1
  O2-  O  1  0.95469700  0.44314400  0.74864000  1
  O2-  O  1  0.83252400  0.34060600  0.03360500  1
