# generated using pymatgen
data_LiCaGaF6
_symmetry_space_group_name_H-M   'P 1'
_cell_length_a   5.17020536
_cell_length_b   5.17020536
_cell_length_c   9.87808500
_cell_angle_alpha   90.00000000
_cell_angle_beta   90.00000000
_cell_angle_gamma   120.00000000
_symmetry_Int_Tables_number   1
_chemical_formula_structural   LiCaGaF6
_chemical_formula_sum   'Li2 Ca2 Ga2 F12'
_cell_volume   228.67515270
_cell_formula_units_Z   2
loop_
 _symmetry_equiv_pos_site_id
 _symmetry_equiv_pos_as_xyz
  1  'x, y, z'
loop_
 _atom_type_symbol
 _atom_type_oxidation_number
  Li+  1.0
  Ca2+  2.0
  Ga3+  3.0
  F-  -1.0
loop_
 _atom_site_type_symbol
 _atom_site_label
 _atom_site_symmetry_multiplicity
 _atom_site_fract_x
 _atom_site_fract_y
 _atom_site_fract_z
 _atom_site_occupancy
  Li+  Li  1  0.33333333  0.66666667  0.25000000  1
  Li+  Li  1  0.66666667  0.33333333  0.75000000  1
  Ca2+  Ca  1  0.00000000  0.00000000  0.00000000  1
  Ca2+  Ca  1  0.00000000  0.00000000  0.50000000  1
  Ga3+  Ga  1  0.66666667  0.33333333  0.25000000  1
  Ga3+  Ga  1  0.33333333  0.66666667  0.75000000  1
  F-  F  1  0.98090933  0.34703767  0.14028600  1
  F-  F  1  0.01909067  0.36612833  0.64028600  1
  F-  F  1  0.63387167  0.65296233  0.64028600  1
  F-  F  1  0.34703767  0.98090933  0.64028600  1
  F-  F  1  0.65296233  0.01909067  0.35971400  1
  F-  F  1  0.65296233  0.63387167  0.14028600  1
  F-  F  1  0.36612833  0.01909067  0.14028600  1
  F-  F  1  0.36612833  0.34703767  0.35971400  1
  F-  F  1  0.34703767  0.36612833  0.85971400  1
  F-  F  1  0.98090933  0.63387167  0.35971400  1
  F-  F  1  0.01909067  0.65296233  0.85971400  1
  F-  F  1  0.63387167  0.98090933  0.85971400  1
