# generated using pymatgen
data_Na3Li3Sc2F12
_symmetry_space_group_name_H-M   'P 1'
_cell_length_a   12.77320200
_cell_length_b   12.77320200
_cell_length_c   12.77320200
_cell_angle_alpha   90.00000000
_cell_angle_beta   90.00000000
_cell_angle_gamma   90.00000000
_symmetry_Int_Tables_number   1
_chemical_formula_structural   Na3Li3Sc2F12
_chemical_formula_sum   'Na24 Li24 Sc16 F96'
_cell_volume   2084.00780410
_cell_formula_units_Z   8
loop_
 _symmetry_equiv_pos_site_id
 _symmetry_equiv_pos_as_xyz
  1  'x, y, z'
loop_
 _atom_type_symbol
 _atom_type_oxidation_number
  Na+  1.0
  Li+  1.0
  Sc3+  3.0
  F-  -1.0
loop_
 _atom_site_type_symbol
 _atom_site_label
 _atom_site_symmetry_multiplicity
 _atom_site_fract_x
 _atom_site_fract_y
 _atom_site_fract_z
 _atom_site_occupancy
  Na+  Na  1  0.50000000  0.25000000  0.37500000  1
  Na+  Na  1  0.00000000  0.25000000  0.62500000  1
  Na+  Na  1  0.25000000  0.62500000  0.00000000  1
  Na+  Na  1  0.62500000  0.00000000  0.25000000  1
  Na+  Na  1  0.37500000  0.50000000  0.25000000  1
  Na+  Na  1  0.25000000  0.37500000  0.50000000  1
  Na+  Na  1  0.00000000  0.25000000  0.12500000  1
  Na+  Na  1  0.50000000  0.25000000  0.87500000  1
  Na+  Na  1  0.25000000  0.87500000  0.50000000  1
  Na+  Na  1  0.87500000  0.50000000  0.25000000  1
  Na+  Na  1  0.25000000  0.12500000  0.00000000  1
  Na+  Na  1  0.12500000  0.00000000  0.25000000  1
  Na+  Na  1  0.00000000  0.75000000  0.87500000  1
  Na+  Na  1  0.50000000  0.75000000  0.12500000  1
  Na+  Na  1  0.75000000  0.12500000  0.50000000  1
  Na+  Na  1  0.12500000  0.50000000  0.75000000  1
  Na+  Na  1  0.87500000  0.00000000  0.75000000  1
  Na+  Na  1  0.75000000  0.87500000  0.00000000  1
  Na+  Na  1  0.50000000  0.75000000  0.62500000  1
  Na+  Na  1  0.00000000  0.75000000  0.37500000  1
  Na+  Na  1  0.75000000  0.37500000  0.00000000  1
  Na+  Na  1  0.37500000  0.00000000  0.75000000  1
  Na+  Na  1  0.75000000  0.62500000  0.50000000  1
  Na+  Na  1  0.62500000  0.50000000  0.75000000  1
  Li+  Li  1  0.37500000  0.00000000  0.25000000  1
  Li+  Li  1  0.75000000  0.37500000  0.50000000  1
  Li+  Li  1  0.75000000  0.12500000  0.00000000  1
  Li+  Li  1  0.00000000  0.75000000  0.12500000  1
  Li+  Li  1  0.00000000  0.25000000  0.37500000  1
  Li+  Li  1  0.12500000  0.00000000  0.75000000  1
  Li+  Li  1  0.50000000  0.75000000  0.37500000  1
  Li+  Li  1  0.50000000  0.25000000  0.12500000  1
  Li+  Li  1  0.25000000  0.12500000  0.50000000  1
  Li+  Li  1  0.12500000  0.50000000  0.25000000  1
  Li+  Li  1  0.37500000  0.50000000  0.75000000  1
  Li+  Li  1  0.25000000  0.37500000  0.00000000  1
  Li+  Li  1  0.87500000  0.50000000  0.75000000  1
  Li+  Li  1  0.25000000  0.87500000  0.00000000  1
  Li+  Li  1  0.25000000  0.62500000  0.50000000  1
  Li+  Li  1  0.50000000  0.25000000  0.62500000  1
  Li+  Li  1  0.50000000  0.75000000  0.87500000  1
  Li+  Li  1  0.62500000  0.50000000  0.25000000  1
  Li+  Li  1  0.00000000  0.25000000  0.87500000  1
  Li+  Li  1  0.00000000  0.75000000  0.62500000  1
  Li+  Li  1  0.75000000  0.62500000  0.00000000  1
  Li+  Li  1  0.62500000  0.00000000  0.75000000  1
  Li+  Li  1  0.87500000  0.00000000  0.25000000  1
  Li+  Li  1  0.75000000  0.87500000  0.50000000  1
  Sc3+  Sc  1  0.25000000  0.25000000  0.25000000  1
  Sc3+  Sc  1  0.00000000  0.00000000  0.50000000  1
  Sc3+  Sc  1  0.00000000  0.50000000  0.00000000  1
  Sc3+  Sc  1  0.50000000  0.00000000  0.00000000  1
  Sc3+  Sc  1  0.75000000  0.25000000  0.25000000  1
  Sc3+  Sc  1  0.25000000  0.25000000  0.75000000  1
  Sc3+  Sc  1  0.25000000  0.75000000  0.25000000  1
  Sc3+  Sc  1  0.00000000  0.00000000  0.00000000  1
  Sc3+  Sc  1  0.75000000  0.75000000  0.75000000  1
  Sc3+  Sc  1  0.50000000  0.50000000  0.00000000  1
  Sc3+  Sc  1  0.50000000  0.00000000  0.50000000  1
  Sc3+  Sc  1  0.00000000  0.50000000  0.50000000  1
  Sc3+  Sc  1  0.25000000  0.75000000  0.75000000  1
  Sc3+  Sc  1  0.75000000  0.75000000  0.25000000  1
  Sc3+  Sc  1  0.75000000  0.25000000  0.75000000  1
  Sc3+  Sc  1  0.50000000  0.50000000  0.50000000  1
  F-  F  1  0.22060200  0.60126200  0.20055000  1
  F-  F  1  0.35126200  0.47060200  0.04945000  1
  F-  F  1  0.04945000  0.64873800  0.02939800  1
  F-  F  1  0.14873800  0.47060200  0.95055000  1
  F-  F  1  0.04945000  0.35126200  0.47060200  1
  F-  F  1  0.27939800  0.60126200  0.79945000  1
  F-  F  1  0.77939800  0.89873800  0.20055000  1
  F-  F  1  0.60126200  0.20055000  0.22060200  1
  F-  F  1  0.64873800  0.02939800  0.04945000  1
  F-  F  1  0.35126200  0.52939800  0.45055000  1
  F-  F  1  0.45055000  0.35126200  0.52939800  1
  F-  F  1  0.47060200  0.04945000  0.35126200  1
  F-  F  1  0.29945000  0.22060200  0.39873800  1
  F-  F  1  0.47060200  0.95055000  0.14873800  1
  F-  F  1  0.39873800  0.29945000  0.22060200  1
  F-  F  1  0.02939800  0.04945000  0.64873800  1
  F-  F  1  0.22060200  0.39873800  0.29945000  1
  F-  F  1  0.95055000  0.14873800  0.47060200  1
  F-  F  1  0.20055000  0.77939800  0.89873800  1
  F-  F  1  0.60126200  0.79945000  0.27939800  1
  F-  F  1  0.97060200  0.04945000  0.14873800  1
  F-  F  1  0.70055000  0.22060200  0.89873800  1
  F-  F  1  0.29945000  0.27939800  0.89873800  1
  F-  F  1  0.89873800  0.29945000  0.27939800  1
  F-  F  1  0.60126200  0.29945000  0.72060200  1
  F-  F  1  0.72060200  0.60126200  0.29945000  1
  F-  F  1  0.22060200  0.89873800  0.70055000  1
  F-  F  1  0.45055000  0.14873800  0.02939800  1
  F-  F  1  0.35126200  0.02939800  0.54945000  1
  F-  F  1  0.45055000  0.85126200  0.47060200  1
  F-  F  1  0.14873800  0.02939800  0.45055000  1
  F-  F  1  0.54945000  0.35126200  0.02939800  1
  F-  F  1  0.85126200  0.47060200  0.45055000  1
  F-  F  1  0.14873800  0.97060200  0.04945000  1
  F-  F  1  0.04945000  0.14873800  0.97060200  1
  F-  F  1  0.02939800  0.45055000  0.14873800  1
  F-  F  1  0.20055000  0.27939800  0.10126200  1
  F-  F  1  0.02939800  0.54945000  0.35126200  1
  F-  F  1  0.10126200  0.20055000  0.27939800  1
  F-  F  1  0.47060200  0.45055000  0.85126200  1
  F-  F  1  0.27939800  0.10126200  0.20055000  1
  F-  F  1  0.29945000  0.72060200  0.60126200  1
  F-  F  1  0.89873800  0.70055000  0.22060200  1
  F-  F  1  0.27939800  0.89873800  0.29945000  1
  F-  F  1  0.52939800  0.45055000  0.35126200  1
  F-  F  1  0.79945000  0.27939800  0.60126200  1
  F-  F  1  0.20055000  0.22060200  0.60126200  1
  F-  F  1  0.89873800  0.20055000  0.77939800  1
  F-  F  1  0.72060200  0.10126200  0.70055000  1
  F-  F  1  0.85126200  0.97060200  0.54945000  1
  F-  F  1  0.54945000  0.14873800  0.52939800  1
  F-  F  1  0.64873800  0.97060200  0.45055000  1
  F-  F  1  0.54945000  0.85126200  0.97060200  1
  F-  F  1  0.77939800  0.10126200  0.29945000  1
  F-  F  1  0.27939800  0.39873800  0.70055000  1
  F-  F  1  0.10126200  0.70055000  0.72060200  1
  F-  F  1  0.14873800  0.52939800  0.54945000  1
  F-  F  1  0.85126200  0.02939800  0.95055000  1
  F-  F  1  0.95055000  0.85126200  0.02939800  1
  F-  F  1  0.97060200  0.54945000  0.85126200  1
  F-  F  1  0.79945000  0.72060200  0.89873800  1
  F-  F  1  0.97060200  0.45055000  0.64873800  1
  F-  F  1  0.89873800  0.79945000  0.72060200  1
  F-  F  1  0.52939800  0.54945000  0.14873800  1
  F-  F  1  0.72060200  0.89873800  0.79945000  1
  F-  F  1  0.45055000  0.64873800  0.97060200  1
  F-  F  1  0.70055000  0.27939800  0.39873800  1
  F-  F  1  0.10126200  0.29945000  0.77939800  1
  F-  F  1  0.47060200  0.54945000  0.64873800  1
  F-  F  1  0.20055000  0.72060200  0.39873800  1
  F-  F  1  0.79945000  0.77939800  0.39873800  1
  F-  F  1  0.39873800  0.79945000  0.77939800  1
  F-  F  1  0.10126200  0.79945000  0.22060200  1
  F-  F  1  0.22060200  0.10126200  0.79945000  1
  F-  F  1  0.72060200  0.39873800  0.20055000  1
  F-  F  1  0.95055000  0.64873800  0.52939800  1
  F-  F  1  0.85126200  0.52939800  0.04945000  1
  F-  F  1  0.95055000  0.35126200  0.97060200  1
  F-  F  1  0.64873800  0.52939800  0.95055000  1
  F-  F  1  0.04945000  0.85126200  0.52939800  1
  F-  F  1  0.35126200  0.97060200  0.95055000  1
  F-  F  1  0.64873800  0.47060200  0.54945000  1
  F-  F  1  0.54945000  0.64873800  0.47060200  1
  F-  F  1  0.52939800  0.95055000  0.64873800  1
  F-  F  1  0.70055000  0.77939800  0.60126200  1
  F-  F  1  0.52939800  0.04945000  0.85126200  1
  F-  F  1  0.60126200  0.70055000  0.77939800  1
  F-  F  1  0.97060200  0.95055000  0.35126200  1
  F-  F  1  0.77939800  0.60126200  0.70055000  1
  F-  F  1  0.79945000  0.22060200  0.10126200  1
  F-  F  1  0.39873800  0.20055000  0.72060200  1
  F-  F  1  0.77939800  0.39873800  0.79945000  1
  F-  F  1  0.02939800  0.95055000  0.85126200  1
  F-  F  1  0.29945000  0.77939800  0.10126200  1
  F-  F  1  0.70055000  0.72060200  0.10126200  1
  F-  F  1  0.39873800  0.70055000  0.27939800  1
