# generated using pymatgen
data_Na2LiY(Si2O5)3
_symmetry_space_group_name_H-M   'P 1'
_cell_length_a   14.54418234
_cell_length_b   17.44264720
_cell_length_c   10.37479049
_cell_angle_alpha   90.00000000
_cell_angle_beta   90.00000000
_cell_angle_gamma   90.00000000
_symmetry_Int_Tables_number   1
_chemical_formula_structural   Na2LiY(Si2O5)3
_chemical_formula_sum   'Na16 Li8 Y8 Si48 O120'
_cell_volume   2631.97065381
_cell_formula_units_Z   8
loop_
 _symmetry_equiv_pos_site_id
 _symmetry_equiv_pos_as_xyz
  1  'x, y, z'
loop_
 _atom_type_symbol
 _atom_type_oxidation_number
  Na+  1.0
  Li+  1.0
  Y3+  3.0
  Si4+  4.0
  O2-  -2.0
loop_
 _atom_site_type_symbol
 _atom_site_label
 _atom_site_symmetry_multiplicity
 _atom_site_fract_x
 _atom_site_fract_y
 _atom_site_fract_z
 _atom_site_occupancy
  Na+  Na  1  0.50000000  0.92363321  0.26079286  1
  Na+  Na  1  0.50000000  0.57636679  0.76079286  1
  Na+  Na  1  0.50000000  0.07636679  0.73920714  1
  Na+  Na  1  0.50000000  0.42363321  0.23920714  1
  Na+  Na  1  0.25000000  0.21543974  0.25000000  1
  Na+  Na  1  0.25000000  0.78456026  0.75000000  1
  Na+  Na  1  0.75000000  0.78456026  0.75000000  1
  Na+  Na  1  0.75000000  0.21543974  0.25000000  1
  Na+  Na  1  0.00000000  0.42363321  0.26079286  1
  Na+  Na  1  0.00000000  0.07636679  0.76079286  1
  Na+  Na  1  0.00000000  0.57636679  0.73920714  1
  Na+  Na  1  0.00000000  0.92363321  0.23920714  1
  Na+  Na  1  0.75000000  0.71543974  0.25000000  1
  Na+  Na  1  0.75000000  0.28456026  0.75000000  1
  Na+  Na  1  0.25000000  0.28456026  0.75000000  1
  Na+  Na  1  0.25000000  0.71543974  0.25000000  1
  Li+  Li  1  0.24479083  0.00000000  0.00000000  1
  Li+  Li  1  0.74479083  0.00000000  0.50000000  1
  Li+  Li  1  0.75520917  0.00000000  0.00000000  1
  Li+  Li  1  0.25520917  0.00000000  0.50000000  1
  Li+  Li  1  0.74479083  0.50000000  0.00000000  1
  Li+  Li  1  0.24479083  0.50000000  0.50000000  1
  Li+  Li  1  0.25520917  0.50000000  0.00000000  1
  Li+  Li  1  0.75520917  0.50000000  0.50000000  1
  Y3+  Y  1  0.25000000  0.91001833  0.25000000  1
  Y3+  Y  1  0.25000000  0.08998167  0.75000000  1
  Y3+  Y  1  0.75000000  0.08998167  0.75000000  1
  Y3+  Y  1  0.75000000  0.91001833  0.25000000  1
  Y3+  Y  1  0.75000000  0.41001833  0.25000000  1
  Y3+  Y  1  0.75000000  0.58998167  0.75000000  1
  Y3+  Y  1  0.25000000  0.58998167  0.75000000  1
  Y3+  Y  1  0.25000000  0.41001833  0.25000000  1
  Si4+  Si  1  0.39317302  0.62396967  0.47543687  1
  Si4+  Si  1  0.61087688  0.07859734  0.31525892  1
  Si4+  Si  1  0.88912312  0.07859734  0.18474108  1
  Si4+  Si  1  0.61087688  0.92140266  0.68474108  1
  Si4+  Si  1  0.11087688  0.07859734  0.18474108  1
  Si4+  Si  1  0.38912312  0.92140266  0.68474108  1
  Si4+  Si  1  0.11087688  0.92140266  0.81525892  1
  Si4+  Si  1  0.38912312  0.07859734  0.31525892  1
  Si4+  Si  1  0.39317302  0.37603033  0.52456313  1
  Si4+  Si  1  0.60682698  0.12396967  0.02456313  1
  Si4+  Si  1  0.88912312  0.92140266  0.81525892  1
  Si4+  Si  1  0.60682698  0.87603033  0.97543687  1
  Si4+  Si  1  0.60682698  0.62396967  0.47543687  1
  Si4+  Si  1  0.39317302  0.87603033  0.97543687  1
  Si4+  Si  1  0.60669074  0.69680818  0.96074283  1
  Si4+  Si  1  0.39317302  0.12396967  0.02456313  1
  Si4+  Si  1  0.39330926  0.30319182  0.03925717  1
  Si4+  Si  1  0.60669074  0.19680819  0.53925717  1
  Si4+  Si  1  0.39330926  0.69680818  0.96074283  1
  Si4+  Si  1  0.60669074  0.80319182  0.46074283  1
  Si4+  Si  1  0.39330926  0.19680819  0.53925717  1
  Si4+  Si  1  0.60669074  0.30319182  0.03925717  1
  Si4+  Si  1  0.39330926  0.80319182  0.46074283  1
  Si4+  Si  1  0.60682698  0.37603033  0.52456313  1
  Si4+  Si  1  0.89317302  0.12396967  0.47543687  1
  Si4+  Si  1  0.11087688  0.57859734  0.31525892  1
  Si4+  Si  1  0.38912312  0.57859734  0.18474108  1
  Si4+  Si  1  0.11087688  0.42140266  0.68474108  1
  Si4+  Si  1  0.61087688  0.57859734  0.18474108  1
  Si4+  Si  1  0.88912312  0.42140266  0.68474108  1
  Si4+  Si  1  0.61087688  0.42140266  0.81525892  1
  Si4+  Si  1  0.88912312  0.57859734  0.31525892  1
  Si4+  Si  1  0.89317302  0.87603033  0.52456313  1
  Si4+  Si  1  0.10682698  0.62396967  0.02456313  1
  Si4+  Si  1  0.38912312  0.42140266  0.81525892  1
  Si4+  Si  1  0.10682698  0.37603033  0.97543687  1
  Si4+  Si  1  0.10682698  0.12396967  0.47543687  1
  Si4+  Si  1  0.89317302  0.37603033  0.97543687  1
  Si4+  Si  1  0.10669074  0.19680819  0.96074283  1
  Si4+  Si  1  0.89317302  0.62396967  0.02456313  1
  Si4+  Si  1  0.89330926  0.80319182  0.03925717  1
  Si4+  Si  1  0.10669074  0.69680819  0.53925717  1
  Si4+  Si  1  0.89330926  0.19680819  0.96074283  1
  Si4+  Si  1  0.10669074  0.30319181  0.46074283  1
  Si4+  Si  1  0.89330926  0.69680819  0.53925717  1
  Si4+  Si  1  0.10669074  0.80319182  0.03925717  1
  Si4+  Si  1  0.89330926  0.30319181  0.46074283  1
  Si4+  Si  1  0.10682698  0.87603033  0.52456313  1
  O2-  O  1  0.61139301  0.21496418  0.99089047  1
  O2-  O  1  0.50000000  0.93573651  0.68402575  1
  O2-  O  1  0.50000000  0.43573651  0.81597425  1
  O2-  O  1  0.50000000  0.06426349  0.31597425  1
  O2-  O  1  0.50000000  0.67147642  0.93159648  1
  O2-  O  1  0.50000000  0.17147642  0.56840352  1
  O2-  O  1  0.50000000  0.32852358  0.06840352  1
  O2-  O  1  0.50000000  0.82852358  0.43159648  1
  O2-  O  1  0.50000000  0.59693600  0.49190547  1
  O2-  O  1  0.50000000  0.90306400  0.99190547  1
  O2-  O  1  0.50000000  0.40306400  0.50809453  1
  O2-  O  1  0.50000000  0.09693600  0.00809453  1
  O2-  O  1  0.33484928  0.31720204  0.16573410  1
  O2-  O  1  0.66515072  0.18279796  0.66573410  1
  O2-  O  1  0.33484928  0.68279796  0.83426590  1
  O2-  O  1  0.66515072  0.81720204  0.33426590  1
  O2-  O  1  0.66515072  0.68279796  0.83426590  1
  O2-  O  1  0.33484928  0.81720204  0.33426590  1
  O2-  O  1  0.66515072  0.31720204  0.16573410  1
  O2-  O  1  0.33484928  0.18279796  0.66573410  1
  O2-  O  1  0.35913170  0.35355978  0.91493294  1
  O2-  O  1  0.64086829  0.14644022  0.41493294  1
  O2-  O  1  0.35913170  0.64644022  0.08506706  1
  O2-  O  1  0.64086829  0.85355978  0.58506706  1
  O2-  O  1  0.86100203  0.88503914  0.67514607  1
  O2-  O  1  0.35913170  0.85355978  0.58506706  1
  O2-  O  1  0.64086829  0.35355978  0.91493294  1
  O2-  O  1  0.35913170  0.14644022  0.41493294  1
  O2-  O  1  0.83962632  0.00038774  0.84598462  1
  O2-  O  1  0.66037368  0.99961226  0.34598462  1
  O2-  O  1  0.83962632  0.99961226  0.15401538  1
  O2-  O  1  0.66037368  0.00038774  0.65401538  1
  O2-  O  1  0.16037368  0.99961226  0.15401538  1
  O2-  O  1  0.33962632  0.00038774  0.65401538  1
  O2-  O  1  0.16037368  0.00038774  0.84598462  1
  O2-  O  1  0.33962632  0.99961226  0.34598462  1
  O2-  O  1  0.38860699  0.21496418  0.99089047  1
  O2-  O  1  0.61139301  0.28503582  0.49089047  1
  O2-  O  1  0.38860699  0.78503582  0.00910953  1
  O2-  O  1  0.61139301  0.71496418  0.50910953  1
  O2-  O  1  0.61139301  0.78503582  0.00910953  1
  O2-  O  1  0.38860699  0.71496418  0.50910953  1
  O2-  O  1  0.50000000  0.56426349  0.18402575  1
  O2-  O  1  0.38860699  0.28503582  0.49089047  1
  O2-  O  1  0.33082593  0.07553208  0.92981570  1
  O2-  O  1  0.16917407  0.92446792  0.42981570  1
  O2-  O  1  0.33082593  0.92446792  0.07018430  1
  O2-  O  1  0.16917407  0.07553208  0.57018430  1
  O2-  O  1  0.66917407  0.92446792  0.07018430  1
  O2-  O  1  0.83082593  0.07553208  0.57018430  1
  O2-  O  1  0.66917407  0.07553208  0.92981570  1
  O2-  O  1  0.83082593  0.92446792  0.42981570  1
  O2-  O  1  0.36100203  0.11496086  0.17514607  1
  O2-  O  1  0.13899797  0.88503914  0.67514607  1
  O2-  O  1  0.36100203  0.88503914  0.82485393  1
  O2-  O  1  0.13899797  0.11496086  0.32485393  1
  O2-  O  1  0.63899797  0.88503914  0.82485393  1
  O2-  O  1  0.86100203  0.11496086  0.32485393  1
  O2-  O  1  0.63899797  0.11496086  0.17514607  1
  O2-  O  1  0.64086829  0.64644022  0.08506706  1
  O2-  O  1  0.11139301  0.71496418  0.99089047  1
  O2-  O  1  0.00000000  0.43573651  0.68402575  1
  O2-  O  1  0.00000000  0.93573651  0.81597425  1
  O2-  O  1  0.00000000  0.56426349  0.31597425  1
  O2-  O  1  0.00000000  0.17147642  0.93159648  1
  O2-  O  1  0.00000000  0.67147642  0.56840352  1
  O2-  O  1  0.00000000  0.82852358  0.06840352  1
  O2-  O  1  0.00000000  0.32852358  0.43159648  1
  O2-  O  1  0.00000000  0.09693600  0.49190547  1
  O2-  O  1  0.00000000  0.40306400  0.99190547  1
  O2-  O  1  0.00000000  0.90306400  0.50809453  1
  O2-  O  1  0.00000000  0.59693600  0.00809453  1
  O2-  O  1  0.83484928  0.81720204  0.16573410  1
  O2-  O  1  0.16515072  0.68279796  0.66573410  1
  O2-  O  1  0.83484928  0.18279796  0.83426590  1
  O2-  O  1  0.16515072  0.31720204  0.33426590  1
  O2-  O  1  0.16515072  0.18279796  0.83426590  1
  O2-  O  1  0.83484928  0.31720204  0.33426590  1
  O2-  O  1  0.16515072  0.81720204  0.16573410  1
  O2-  O  1  0.83484928  0.68279796  0.66573410  1
  O2-  O  1  0.85913171  0.85355978  0.91493294  1
  O2-  O  1  0.14086829  0.64644022  0.41493294  1
  O2-  O  1  0.85913171  0.14644023  0.08506706  1
  O2-  O  1  0.14086829  0.35355977  0.58506706  1
  O2-  O  1  0.36100203  0.38503914  0.67514607  1
  O2-  O  1  0.85913171  0.35355977  0.58506706  1
  O2-  O  1  0.14086829  0.85355978  0.91493294  1
  O2-  O  1  0.85913171  0.64644022  0.41493294  1
  O2-  O  1  0.33962632  0.50038774  0.84598462  1
  O2-  O  1  0.16037368  0.49961226  0.34598462  1
  O2-  O  1  0.33962632  0.49961226  0.15401538  1
  O2-  O  1  0.16037368  0.50038774  0.65401538  1
  O2-  O  1  0.66037368  0.49961226  0.15401538  1
  O2-  O  1  0.83962632  0.50038774  0.65401538  1
  O2-  O  1  0.66037368  0.50038774  0.84598462  1
  O2-  O  1  0.83962632  0.49961226  0.34598462  1
  O2-  O  1  0.88860699  0.71496418  0.99089047  1
  O2-  O  1  0.11139301  0.78503582  0.49089047  1
  O2-  O  1  0.88860699  0.28503582  0.00910953  1
  O2-  O  1  0.11139301  0.21496418  0.50910953  1
  O2-  O  1  0.11139301  0.28503582  0.00910953  1
  O2-  O  1  0.88860699  0.21496418  0.50910953  1
  O2-  O  1  0.00000000  0.06426349  0.18402575  1
  O2-  O  1  0.88860699  0.78503582  0.49089047  1
  O2-  O  1  0.83082593  0.57553208  0.92981570  1
  O2-  O  1  0.66917407  0.42446792  0.42981570  1
  O2-  O  1  0.83082593  0.42446792  0.07018430  1
  O2-  O  1  0.66917407  0.57553208  0.57018430  1
  O2-  O  1  0.16917406  0.42446792  0.07018430  1
  O2-  O  1  0.33082594  0.57553208  0.57018430  1
  O2-  O  1  0.16917406  0.57553208  0.92981570  1
  O2-  O  1  0.33082594  0.42446792  0.42981570  1
  O2-  O  1  0.86100203  0.61496086  0.17514607  1
  O2-  O  1  0.63899797  0.38503914  0.67514607  1
  O2-  O  1  0.86100203  0.38503914  0.82485393  1
  O2-  O  1  0.63899797  0.61496086  0.32485393  1
  O2-  O  1  0.13899797  0.38503914  0.82485393  1
  O2-  O  1  0.36100203  0.61496086  0.32485393  1
  O2-  O  1  0.13899797  0.61496086  0.17514607  1
  O2-  O  1  0.14086829  0.14644023  0.08506706  1
