# generated using pymatgen
data_LiBO2
_symmetry_space_group_name_H-M   'P 1'
_cell_length_a   4.17704686
_cell_length_b   4.17704686
_cell_length_c   6.52579474
_cell_angle_alpha   90.00000000
_cell_angle_beta   90.00000000
_cell_angle_gamma   90.00000000
_symmetry_Int_Tables_number   1
_chemical_formula_structural   LiBO2
_chemical_formula_sum   'Li4 B4 O8'
_cell_volume   113.86024277
_cell_formula_units_Z   4
loop_
 _symmetry_equiv_pos_site_id
 _symmetry_equiv_pos_as_xyz
  1  'x, y, z'
loop_
 _atom_type_symbol
 _atom_type_oxidation_number
  Li+  1.0
  B3+  3.0
  O2-  -2.0
loop_
 _atom_site_type_symbol
 _atom_site_label
 _atom_site_symmetry_multiplicity
 _atom_site_fract_x
 _atom_site_fract_y
 _atom_site_fract_z
 _atom_site_occupancy
  Li+  Li  1  0.50000000  0.00000000  0.25000000  1
  Li+  Li  1  0.00000000  0.00000000  0.50000000  1
  Li+  Li  1  0.00000000  0.50000000  0.75000000  1
  Li+  Li  1  0.50000000  0.50000000  0.00000000  1
  B3+  B  1  0.00000000  0.50000000  0.25000000  1
  B3+  B  1  0.50000000  0.50000000  0.50000000  1
  B3+  B  1  0.50000000  0.00000000  0.75000000  1
  B3+  B  1  0.00000000  0.00000000  0.00000000  1
  O2-  O  1  0.25000000  0.34059220  0.37500000  1
  O2-  O  1  0.34059220  0.75000000  0.62500000  1
  O2-  O  1  0.65940780  0.25000000  0.62500000  1
  O2-  O  1  0.75000000  0.65940780  0.37500000  1
  O2-  O  1  0.75000000  0.84059220  0.87500000  1
  O2-  O  1  0.84059220  0.25000000  0.12500000  1
  O2-  O  1  0.15940780  0.75000000  0.12500000  1
  O2-  O  1  0.25000000  0.15940780  0.87500000  1
