# generated using pymatgen
data_Li3GaF6
_symmetry_space_group_name_H-M   'P 1'
_cell_length_a   14.18644836
_cell_length_b   8.52294870
_cell_length_c   9.88124522
_cell_angle_alpha   90.00000000
_cell_angle_beta   95.58781999
_cell_angle_gamma   90.00000000
_symmetry_Int_Tables_number   1
_chemical_formula_structural   Li3GaF6
_chemical_formula_sum   'Li36 Ga12 F72'
_cell_volume   1189.06774896
_cell_formula_units_Z   12
loop_
 _symmetry_equiv_pos_site_id
 _symmetry_equiv_pos_as_xyz
  1  'x, y, z'
loop_
 _atom_type_symbol
 _atom_type_oxidation_number
  Li+  1.0
  Ga3+  3.0
  F-  -1.0
loop_
 _atom_site_type_symbol
 _atom_site_label
 _atom_site_symmetry_multiplicity
 _atom_site_fract_x
 _atom_site_fract_y
 _atom_site_fract_z
 _atom_site_occupancy
  Li+  Li  1  0.33109129  0.79524935  0.45000512  1
  Li+  Li  1  0.66890871  0.79524935  0.04999488  1
  Li+  Li  1  0.66890871  0.20475065  0.54999488  1
  Li+  Li  1  0.33109129  0.20475065  0.95000512  1
  Li+  Li  1  0.64247505  0.64961615  0.77003879  1
  Li+  Li  1  0.35752495  0.64961615  0.72996121  1
  Li+  Li  1  0.50000000  0.31207763  0.75000000  1
  Li+  Li  1  0.50000000  0.68792237  0.25000000  1
  Li+  Li  1  0.20211060  0.14200568  0.43276118  1
  Li+  Li  1  0.79788940  0.14200568  0.06723882  1
  Li+  Li  1  0.79788940  0.85799432  0.56723882  1
  Li+  Li  1  0.20211060  0.85799432  0.93276118  1
  Li+  Li  1  0.51995908  0.15234195  0.03287813  1
  Li+  Li  1  0.48004092  0.15234195  0.46712187  1
  Li+  Li  1  0.48004092  0.84765805  0.96712187  1
  Li+  Li  1  0.51995908  0.84765805  0.53287813  1
  Li+  Li  1  0.35752495  0.35038385  0.22996121  1
  Li+  Li  1  0.64247505  0.35038385  0.27003879  1
  Li+  Li  1  0.83109129  0.29524935  0.45000512  1
  Li+  Li  1  0.16890871  0.29524935  0.04999488  1
  Li+  Li  1  0.16890871  0.70475065  0.54999488  1
  Li+  Li  1  0.83109129  0.70475065  0.95000512  1
  Li+  Li  1  0.14247505  0.14961615  0.77003879  1
  Li+  Li  1  0.85752495  0.14961615  0.72996121  1
  Li+  Li  1  0.00000000  0.81207763  0.75000000  1
  Li+  Li  1  0.00000000  0.18792237  0.25000000  1
  Li+  Li  1  0.70211060  0.64200568  0.43276118  1
  Li+  Li  1  0.29788940  0.64200568  0.06723882  1
  Li+  Li  1  0.29788940  0.35799432  0.56723882  1
  Li+  Li  1  0.70211060  0.35799432  0.93276118  1
  Li+  Li  1  0.01995908  0.65234195  0.03287813  1
  Li+  Li  1  0.98004092  0.65234195  0.46712187  1
  Li+  Li  1  0.98004092  0.34765805  0.96712187  1
  Li+  Li  1  0.01995908  0.34765805  0.53287813  1
  Li+  Li  1  0.85752495  0.85038385  0.22996121  1
  Li+  Li  1  0.14247505  0.85038385  0.27003879  1
  Ga3+  Ga  1  0.33855698  0.99696279  0.20699667  1
  Ga3+  Ga  1  0.66144302  0.99696279  0.29300333  1
  Ga3+  Ga  1  0.66144302  0.00303721  0.79300333  1
  Ga3+  Ga  1  0.33855698  0.00303721  0.70699667  1
  Ga3+  Ga  1  0.00000000  0.00000000  0.50000000  1
  Ga3+  Ga  1  0.00000000  0.00000000  0.00000000  1
  Ga3+  Ga  1  0.83855698  0.49696279  0.20699667  1
  Ga3+  Ga  1  0.16144302  0.49696279  0.29300333  1
  Ga3+  Ga  1  0.16144302  0.50303721  0.79300333  1
  Ga3+  Ga  1  0.83855698  0.50303721  0.70699667  1
  Ga3+  Ga  1  0.50000000  0.50000000  0.50000000  1
  Ga3+  Ga  1  0.50000000  0.50000000  0.00000000  1
  F-  F  1  0.59853173  0.15941075  0.19139981  1
  F-  F  1  0.75007537  0.02245482  0.65736041  1
  F-  F  1  0.75007537  0.97754518  0.15736041  1
  F-  F  1  0.24992463  0.97754518  0.34263959  1
  F-  F  1  0.57753803  0.66323820  0.93700702  1
  F-  F  1  0.42246197  0.66323820  0.56299298  1
  F-  F  1  0.42246197  0.33676180  0.06299298  1
  F-  F  1  0.57753803  0.33676180  0.43700702  1
  F-  F  1  0.24992463  0.02245482  0.84263959  1
  F-  F  1  0.57320043  0.66629936  0.43347289  1
  F-  F  1  0.57320043  0.33370064  0.93347289  1
  F-  F  1  0.42679957  0.33370064  0.56652711  1
  F-  F  1  0.40146827  0.15941075  0.30860019  1
  F-  F  1  0.58019374  0.99227111  0.93434107  1
  F-  F  1  0.58019374  0.00772889  0.43434107  1
  F-  F  1  0.41980626  0.00772889  0.06565893  1
  F-  F  1  0.26014152  0.15624567  0.61056999  1
  F-  F  1  0.73985848  0.15624567  0.88943001  1
  F-  F  1  0.73985848  0.84375433  0.38943001  1
  F-  F  1  0.26014152  0.84375433  0.11056999  1
  F-  F  1  0.07345208  0.00584878  0.16831458  1
  F-  F  1  0.92654792  0.00584878  0.33168542  1
  F-  F  1  0.92654792  0.99415122  0.83168542  1
  F-  F  1  0.07345208  0.99415122  0.66831458  1
  F-  F  1  0.40146827  0.84058925  0.80860019  1
  F-  F  1  0.59853173  0.84058925  0.69139981  1
  F-  F  1  0.73222048  0.16048637  0.38625857  1
  F-  F  1  0.41980626  0.99227111  0.56565893  1
  F-  F  1  0.26777952  0.83951363  0.61374143  1
  F-  F  1  0.73222048  0.83951363  0.88625857  1
  F-  F  1  0.59077300  0.16028307  0.69316987  1
  F-  F  1  0.40922700  0.16028307  0.80683013  1
  F-  F  1  0.40922700  0.83971693  0.30683013  1
  F-  F  1  0.59077300  0.83971693  0.19316987  1
  F-  F  1  0.42679957  0.66629936  0.06652711  1
  F-  F  1  0.26777952  0.16048637  0.11374143  1
  F-  F  1  0.09853173  0.65941075  0.19139981  1
  F-  F  1  0.25007537  0.52245482  0.65736041  1
  F-  F  1  0.25007537  0.47754518  0.15736041  1
  F-  F  1  0.74992463  0.47754518  0.34263959  1
  F-  F  1  0.07753803  0.16323820  0.93700702  1
  F-  F  1  0.92246197  0.16323820  0.56299298  1
  F-  F  1  0.92246197  0.83676180  0.06299298  1
  F-  F  1  0.07753803  0.83676180  0.43700702  1
  F-  F  1  0.74992463  0.52245482  0.84263959  1
  F-  F  1  0.07320043  0.16629936  0.43347289  1
  F-  F  1  0.07320043  0.83370064  0.93347289  1
  F-  F  1  0.92679957  0.83370064  0.56652711  1
  F-  F  1  0.90146827  0.65941075  0.30860019  1
  F-  F  1  0.08019374  0.49227111  0.93434107  1
  F-  F  1  0.08019374  0.50772889  0.43434107  1
  F-  F  1  0.91980627  0.50772889  0.06565893  1
  F-  F  1  0.76014152  0.65624567  0.61056999  1
  F-  F  1  0.23985848  0.65624567  0.88943001  1
  F-  F  1  0.23985848  0.34375433  0.38943001  1
  F-  F  1  0.76014152  0.34375433  0.11056999  1
  F-  F  1  0.57345208  0.50584878  0.16831458  1
  F-  F  1  0.42654792  0.50584878  0.33168542  1
  F-  F  1  0.42654792  0.49415122  0.83168542  1
  F-  F  1  0.57345208  0.49415122  0.66831458  1
  F-  F  1  0.90146827  0.34058925  0.80860019  1
  F-  F  1  0.09853173  0.34058925  0.69139981  1
  F-  F  1  0.23222048  0.66048638  0.38625857  1
  F-  F  1  0.91980627  0.49227111  0.56565893  1
  F-  F  1  0.76777952  0.33951363  0.61374143  1
  F-  F  1  0.23222048  0.33951363  0.88625857  1
  F-  F  1  0.09077300  0.66028307  0.69316987  1
  F-  F  1  0.90922700  0.66028307  0.80683013  1
  F-  F  1  0.90922700  0.33971693  0.30683013  1
  F-  F  1  0.09077300  0.33971693  0.19316987  1
  F-  F  1  0.92679957  0.16629936  0.06652711  1
  F-  F  1  0.76777952  0.66048638  0.11374143  1
