# generated using pymatgen
data_KNa2Li3Fe2(Si2O5)6
_symmetry_space_group_name_H-M   'P 1'
_cell_length_a   10.18883185
_cell_length_b   10.18883185
_cell_length_c   14.33817400
_cell_angle_alpha   90.00000000
_cell_angle_beta   90.00000000
_cell_angle_gamma   120.00000000
_symmetry_Int_Tables_number   1
_chemical_formula_structural   KNa2Li3Fe2(Si2O5)6
_chemical_formula_sum   'K2 Na4 Li6 Fe4 Si24 O60'
_cell_volume   1289.06040301
_cell_formula_units_Z   2
loop_
 _symmetry_equiv_pos_site_id
 _symmetry_equiv_pos_as_xyz
  1  'x, y, z'
loop_
 _atom_type_symbol
 _atom_type_oxidation_number
  K+  1.0
  Na+  1.0
  Li+  1.0
  Fe3+  3.0
  Si4+  4.0
  O2-  -2.0
loop_
 _atom_site_type_symbol
 _atom_site_label
 _atom_site_symmetry_multiplicity
 _atom_site_fract_x
 _atom_site_fract_y
 _atom_site_fract_z
 _atom_site_occupancy
  K+  K  1  0.00000000  0.00000000  0.25000000  1
  K+  K  1  0.00000000  0.00000000  0.75000000  1
  Na+  Na  1  0.33333333  0.66666667  0.50000000  1
  Na+  Na  1  0.33333333  0.66666667  0.00000000  1
  Na+  Na  1  0.66666667  0.33333333  0.00000000  1
  Na+  Na  1  0.66666667  0.33333333  0.50000000  1
  Li+  Li  1  0.00000000  0.50000000  0.25000000  1
  Li+  Li  1  0.50000000  0.50000000  0.75000000  1
  Li+  Li  1  0.50000000  0.00000000  0.75000000  1
  Li+  Li  1  0.00000000  0.50000000  0.75000000  1
  Li+  Li  1  0.50000000  0.50000000  0.25000000  1
  Li+  Li  1  0.50000000  0.00000000  0.25000000  1
  Fe3+  Fe  1  0.66666667  0.33333333  0.75000000  1
  Fe3+  Fe  1  0.33333333  0.66666667  0.75000000  1
  Fe3+  Fe  1  0.33333333  0.66666667  0.25000000  1
  Fe3+  Fe  1  0.66666667  0.33333333  0.25000000  1
  Si4+  Si  1  0.11897700  0.76354500  0.38840700  1
  Si4+  Si  1  0.64456800  0.88102300  0.61159300  1
  Si4+  Si  1  0.11897700  0.76354500  0.61159300  1
  Si4+  Si  1  0.76354500  0.11897700  0.88840700  1
  Si4+  Si  1  0.35543200  0.23645500  0.88840700  1
  Si4+  Si  1  0.64456800  0.76354500  0.88840700  1
  Si4+  Si  1  0.23645500  0.88102300  0.88840700  1
  Si4+  Si  1  0.88102300  0.64456800  0.88840700  1
  Si4+  Si  1  0.64456800  0.88102300  0.38840700  1
  Si4+  Si  1  0.11897700  0.35543200  0.88840700  1
  Si4+  Si  1  0.23645500  0.35543200  0.38840700  1
  Si4+  Si  1  0.76354500  0.64456800  0.38840700  1
  Si4+  Si  1  0.88102300  0.64456800  0.11159300  1
  Si4+  Si  1  0.23645500  0.35543200  0.61159300  1
  Si4+  Si  1  0.88102300  0.23645500  0.38840700  1
  Si4+  Si  1  0.23645500  0.88102300  0.11159300  1
  Si4+  Si  1  0.64456800  0.76354500  0.11159300  1
  Si4+  Si  1  0.35543200  0.23645500  0.11159300  1
  Si4+  Si  1  0.76354500  0.11897700  0.11159300  1
  Si4+  Si  1  0.11897700  0.35543200  0.11159300  1
  Si4+  Si  1  0.76354500  0.64456800  0.61159300  1
  Si4+  Si  1  0.88102300  0.23645500  0.61159300  1
  Si4+  Si  1  0.35543200  0.11897700  0.61159300  1
  Si4+  Si  1  0.35543200  0.11897700  0.38840700  1
  O2-  O  1  0.73787700  0.59849700  0.50000000  1
  O2-  O  1  0.65802700  0.16367200  0.82975200  1
  O2-  O  1  0.50564500  0.34197300  0.82975200  1
  O2-  O  1  0.49435500  0.65802700  0.82975200  1
  O2-  O  1  0.50564500  0.16367200  0.67024800  1
  O2-  O  1  0.49435500  0.83632800  0.67024800  1
  O2-  O  1  0.16367200  0.50564500  0.82975200  1
  O2-  O  1  0.34197300  0.50564500  0.67024800  1
  O2-  O  1  0.65802700  0.49435500  0.67024800  1
  O2-  O  1  0.83632800  0.34197300  0.67024800  1
  O2-  O  1  0.34197300  0.83632800  0.82975200  1
  O2-  O  1  0.83632800  0.49435500  0.82975200  1
  O2-  O  1  0.49435500  0.83632800  0.32975200  1
  O2-  O  1  0.16367200  0.65802700  0.32975200  1
  O2-  O  1  0.34197300  0.50564500  0.32975200  1
  O2-  O  1  0.65802700  0.49435500  0.32975200  1
  O2-  O  1  0.83632800  0.49435500  0.17024800  1
  O2-  O  1  0.50564500  0.16367200  0.32975200  1
  O2-  O  1  0.83632800  0.34197300  0.32975200  1
  O2-  O  1  0.34197300  0.83632800  0.17024800  1
  O2-  O  1  0.49435500  0.65802700  0.17024800  1
  O2-  O  1  0.50564500  0.34197300  0.17024800  1
  O2-  O  1  0.65802700  0.16367200  0.17024800  1
  O2-  O  1  0.16367200  0.50564500  0.17024800  1
  O2-  O  1  0.05469600  0.77888500  0.86583400  1
  O2-  O  1  0.77888500  0.05469600  0.63416600  1
  O2-  O  1  0.94530400  0.72418900  0.63416600  1
  O2-  O  1  0.05469600  0.27581100  0.63416600  1
  O2-  O  1  0.22111500  0.27581100  0.86583400  1
  O2-  O  1  0.72418900  0.77888500  0.63416600  1
  O2-  O  1  0.22111500  0.94530400  0.63416600  1
  O2-  O  1  0.94530400  0.22111500  0.86583400  1
  O2-  O  1  0.27581100  0.05469600  0.86583400  1
  O2-  O  1  0.72418900  0.94530400  0.86583400  1
  O2-  O  1  0.13938000  0.40150300  0.00000000  1
  O2-  O  1  0.73787700  0.13938000  0.00000000  1
  O2-  O  1  0.40150300  0.26212300  0.00000000  1
  O2-  O  1  0.59849700  0.73787700  0.00000000  1
  O2-  O  1  0.26212300  0.86062000  0.00000000  1
  O2-  O  1  0.86062000  0.26212300  0.50000000  1
  O2-  O  1  0.40150300  0.13938000  0.50000000  1
  O2-  O  1  0.86062000  0.59849700  0.00000000  1
  O2-  O  1  0.16367200  0.65802700  0.67024800  1
  O2-  O  1  0.26212300  0.40150300  0.50000000  1
  O2-  O  1  0.13938000  0.73787700  0.50000000  1
  O2-  O  1  0.59849700  0.86062000  0.50000000  1
  O2-  O  1  0.22111500  0.27581100  0.13416600  1
  O2-  O  1  0.94530400  0.22111500  0.13416600  1
  O2-  O  1  0.27581100  0.05469600  0.13416600  1
  O2-  O  1  0.72418900  0.94530400  0.13416600  1
  O2-  O  1  0.05469600  0.77888500  0.13416600  1
  O2-  O  1  0.77888500  0.05469600  0.36583400  1
  O2-  O  1  0.27581100  0.22111500  0.36583400  1
  O2-  O  1  0.77888500  0.72418900  0.13416600  1
  O2-  O  1  0.94530400  0.72418900  0.36583400  1
  O2-  O  1  0.05469600  0.27581100  0.36583400  1
  O2-  O  1  0.22111500  0.94530400  0.36583400  1
  O2-  O  1  0.72418900  0.77888500  0.36583400  1
  O2-  O  1  0.77888500  0.72418900  0.86583400  1
  O2-  O  1  0.27581100  0.22111500  0.63416600  1
