# generated using pymatgen
data_KNa2Li3Cr2(Si2O5)6
_symmetry_space_group_name_H-M   'P 1'
_cell_length_a   10.14862646
_cell_length_b   10.14862646
_cell_length_c   14.25137400
_cell_angle_alpha   90.00000000
_cell_angle_beta   90.00000000
_cell_angle_gamma   120.00000000
_symmetry_Int_Tables_number   1
_chemical_formula_structural   KNa2Li3Cr2(Si2O5)6
_chemical_formula_sum   'K2 Na4 Li6 Cr4 Si24 O60'
_cell_volume   1271.16493666
_cell_formula_units_Z   2
loop_
 _symmetry_equiv_pos_site_id
 _symmetry_equiv_pos_as_xyz
  1  'x, y, z'
loop_
 _atom_type_symbol
 _atom_type_oxidation_number
  K+  1.0
  Na+  1.0
  Li+  1.0
  Cr3+  3.0
  Si4+  4.0
  O2-  -2.0
loop_
 _atom_site_type_symbol
 _atom_site_label
 _atom_site_symmetry_multiplicity
 _atom_site_fract_x
 _atom_site_fract_y
 _atom_site_fract_z
 _atom_site_occupancy
  K+  K  1  0.00000000  0.00000000  0.25000000  1
  K+  K  1  0.00000000  0.00000000  0.75000000  1
  Na+  Na  1  0.33333333  0.66666667  0.50000000  1
  Na+  Na  1  0.33333333  0.66666667  0.00000000  1
  Na+  Na  1  0.66666667  0.33333333  0.00000000  1
  Na+  Na  1  0.66666667  0.33333333  0.50000000  1
  Li+  Li  1  0.00000000  0.50000000  0.25000000  1
  Li+  Li  1  0.50000000  0.50000000  0.75000000  1
  Li+  Li  1  0.50000000  0.00000000  0.75000000  1
  Li+  Li  1  0.00000000  0.50000000  0.75000000  1
  Li+  Li  1  0.50000000  0.50000000  0.25000000  1
  Li+  Li  1  0.50000000  0.00000000  0.25000000  1
  Cr3+  Cr  1  0.66666667  0.33333333  0.75000000  1
  Cr3+  Cr  1  0.33333333  0.66666667  0.75000000  1
  Cr3+  Cr  1  0.33333333  0.66666667  0.25000000  1
  Cr3+  Cr  1  0.66666667  0.33333333  0.25000000  1
  Si4+  Si  1  0.12198800  0.76482200  0.38752200  1
  Si4+  Si  1  0.64283400  0.87801200  0.61247800  1
  Si4+  Si  1  0.12198800  0.76482200  0.61247800  1
  Si4+  Si  1  0.76482200  0.12198800  0.88752200  1
  Si4+  Si  1  0.35716600  0.23517800  0.88752200  1
  Si4+  Si  1  0.64283400  0.76482200  0.88752200  1
  Si4+  Si  1  0.23517800  0.87801200  0.88752200  1
  Si4+  Si  1  0.87801200  0.64283400  0.88752200  1
  Si4+  Si  1  0.64283400  0.87801200  0.38752200  1
  Si4+  Si  1  0.12198800  0.35716600  0.88752200  1
  Si4+  Si  1  0.23517800  0.35716600  0.38752200  1
  Si4+  Si  1  0.76482200  0.64283400  0.38752200  1
  Si4+  Si  1  0.87801200  0.64283400  0.11247800  1
  Si4+  Si  1  0.23517800  0.35716600  0.61247800  1
  Si4+  Si  1  0.87801200  0.23517800  0.38752200  1
  Si4+  Si  1  0.23517800  0.87801200  0.11247800  1
  Si4+  Si  1  0.64283400  0.76482200  0.11247800  1
  Si4+  Si  1  0.35716600  0.23517800  0.11247800  1
  Si4+  Si  1  0.76482200  0.12198800  0.11247800  1
  Si4+  Si  1  0.12198800  0.35716600  0.11247800  1
  Si4+  Si  1  0.76482200  0.64283400  0.61247800  1
  Si4+  Si  1  0.87801200  0.23517800  0.61247800  1
  Si4+  Si  1  0.35716600  0.12198800  0.61247800  1
  Si4+  Si  1  0.35716600  0.12198800  0.38752200  1
  O2-  O  1  0.73988000  0.59826900  0.50000000  1
  O2-  O  1  0.65778600  0.16624100  0.82934500  1
  O2-  O  1  0.50845500  0.34221400  0.82934500  1
  O2-  O  1  0.49154500  0.65778600  0.82934500  1
  O2-  O  1  0.50845500  0.16624100  0.67065500  1
  O2-  O  1  0.49154500  0.83375900  0.67065500  1
  O2-  O  1  0.16624100  0.50845500  0.82934500  1
  O2-  O  1  0.34221400  0.50845500  0.67065500  1
  O2-  O  1  0.65778600  0.49154500  0.67065500  1
  O2-  O  1  0.83375900  0.34221400  0.67065500  1
  O2-  O  1  0.34221400  0.83375900  0.82934500  1
  O2-  O  1  0.83375900  0.49154500  0.82934500  1
  O2-  O  1  0.49154500  0.83375900  0.32934500  1
  O2-  O  1  0.16624100  0.65778600  0.32934500  1
  O2-  O  1  0.34221400  0.50845500  0.32934500  1
  O2-  O  1  0.65778600  0.49154500  0.32934500  1
  O2-  O  1  0.83375900  0.49154500  0.17065500  1
  O2-  O  1  0.50845500  0.16624100  0.32934500  1
  O2-  O  1  0.83375900  0.34221400  0.32934500  1
  O2-  O  1  0.34221400  0.83375900  0.17065500  1
  O2-  O  1  0.49154500  0.65778600  0.17065500  1
  O2-  O  1  0.50845500  0.34221400  0.17065500  1
  O2-  O  1  0.65778600  0.16624100  0.17065500  1
  O2-  O  1  0.16624100  0.50845500  0.17065500  1
  O2-  O  1  0.05282700  0.77640800  0.86444700  1
  O2-  O  1  0.77640800  0.05282700  0.63555300  1
  O2-  O  1  0.94717300  0.72358100  0.63555300  1
  O2-  O  1  0.05282700  0.27641900  0.63555300  1
  O2-  O  1  0.22359200  0.27641900  0.86444700  1
  O2-  O  1  0.72358100  0.77640800  0.63555300  1
  O2-  O  1  0.22359200  0.94717300  0.63555300  1
  O2-  O  1  0.94717300  0.22359200  0.86444700  1
  O2-  O  1  0.27641900  0.05282700  0.86444700  1
  O2-  O  1  0.72358100  0.94717300  0.86444700  1
  O2-  O  1  0.14161100  0.40173100  0.00000000  1
  O2-  O  1  0.73988000  0.14161100  0.00000000  1
  O2-  O  1  0.40173100  0.26012000  0.00000000  1
  O2-  O  1  0.59826900  0.73988000  0.00000000  1
  O2-  O  1  0.26012000  0.85838900  0.00000000  1
  O2-  O  1  0.85838900  0.26012000  0.50000000  1
  O2-  O  1  0.40173100  0.14161100  0.50000000  1
  O2-  O  1  0.85838900  0.59826900  0.00000000  1
  O2-  O  1  0.16624100  0.65778600  0.67065500  1
  O2-  O  1  0.26012000  0.40173100  0.50000000  1
  O2-  O  1  0.14161100  0.73988000  0.50000000  1
  O2-  O  1  0.59826900  0.85838900  0.50000000  1
  O2-  O  1  0.22359200  0.27641900  0.13555300  1
  O2-  O  1  0.94717300  0.22359200  0.13555300  1
  O2-  O  1  0.27641900  0.05282700  0.13555300  1
  O2-  O  1  0.72358100  0.94717300  0.13555300  1
  O2-  O  1  0.05282700  0.77640800  0.13555300  1
  O2-  O  1  0.77640800  0.05282700  0.36444700  1
  O2-  O  1  0.27641900  0.22359200  0.36444700  1
  O2-  O  1  0.77640800  0.72358100  0.13555300  1
  O2-  O  1  0.94717300  0.72358100  0.36444700  1
  O2-  O  1  0.05282700  0.27641900  0.36444700  1
  O2-  O  1  0.22359200  0.94717300  0.36444700  1
  O2-  O  1  0.72358100  0.77640800  0.36444700  1
  O2-  O  1  0.77640800  0.72358100  0.86444700  1
  O2-  O  1  0.27641900  0.22359200  0.63555300  1
