# generated using pymatgen
data_Ba4LiTa3O12
_symmetry_space_group_name_H-M   'P 1'
_cell_length_a   5.86322615
_cell_length_b   5.86322615
_cell_length_c   19.35660800
_cell_angle_alpha   90.00000000
_cell_angle_beta   90.00000000
_cell_angle_gamma   120.00000000
_symmetry_Int_Tables_number   1
_chemical_formula_structural   Ba4LiTa3O12
_chemical_formula_sum   'Ba8 Li2 Ta6 O24'
_cell_volume   576.27950883
_cell_formula_units_Z   2
loop_
 _symmetry_equiv_pos_site_id
 _symmetry_equiv_pos_as_xyz
  1  'x, y, z'
loop_
 _atom_type_symbol
 _atom_type_oxidation_number
  Ba2+  2.0
  Li+  1.0
  Ta5+  5.0
  O2-  -2.0
loop_
 _atom_site_type_symbol
 _atom_site_label
 _atom_site_symmetry_multiplicity
 _atom_site_fract_x
 _atom_site_fract_y
 _atom_site_fract_z
 _atom_site_occupancy
  Ba2+  Ba  1  0.00000000  0.00000000  0.50299700  1
  Ba2+  Ba  1  0.00000000  0.00000000  0.00299700  1
  Ba2+  Ba  1  0.66666667  0.33333333  0.64502300  1
  Ba2+  Ba  1  0.33333333  0.66666667  0.14502300  1
  Ba2+  Ba  1  0.66666667  0.33333333  0.86958700  1
  Ba2+  Ba  1  0.33333333  0.66666667  0.36958700  1
  Ba2+  Ba  1  0.33333333  0.66666667  0.74812600  1
  Ba2+  Ba  1  0.66666667  0.33333333  0.24812600  1
  Li+  Li  1  0.00000000  0.00000000  0.66619400  1
  Li+  Li  1  0.00000000  0.00000000  0.16619400  1
  Ta5+  Ta  1  0.00000000  0.00000000  0.80996200  1
  Ta5+  Ta  1  0.00000000  0.00000000  0.30996200  1
  Ta5+  Ta  1  0.66666667  0.33333333  0.06582300  1
  Ta5+  Ta  1  0.33333333  0.66666667  0.56582300  1
  Ta5+  Ta  1  0.66666667  0.33333333  0.43947300  1
  Ta5+  Ta  1  0.33333333  0.66666667  0.93947300  1
  O2-  O  1  0.68267500  0.84133750  0.25778900  1
  O2-  O  1  0.31732500  0.15866250  0.75778900  1
  O2-  O  1  0.84133750  0.15866250  0.75778900  1
  O2-  O  1  0.15866250  0.31732500  0.25778900  1
  O2-  O  1  0.83055700  0.66111400  0.37892600  1
  O2-  O  1  0.16944300  0.83055700  0.87892600  1
  O2-  O  1  0.66111400  0.83055700  0.87892600  1
  O2-  O  1  0.33888600  0.16944300  0.37892600  1
  O2-  O  1  0.83055700  0.16944300  0.37892600  1
  O2-  O  1  0.16944300  0.33888600  0.87892600  1
  O2-  O  1  0.82619200  0.65238400  0.11769100  1
  O2-  O  1  0.17380800  0.82619200  0.61769100  1
  O2-  O  1  0.84133750  0.68267500  0.75778900  1
  O2-  O  1  0.15866250  0.84133750  0.25778900  1
  O2-  O  1  0.50144200  0.00288400  0.49653200  1
  O2-  O  1  0.49855800  0.50144200  0.99653200  1
  O2-  O  1  0.00288400  0.50144200  0.99653200  1
  O2-  O  1  0.99711600  0.49855800  0.49653200  1
  O2-  O  1  0.50144200  0.49855800  0.49653200  1
  O2-  O  1  0.49855800  0.99711600  0.99653200  1
  O2-  O  1  0.17380800  0.34761600  0.61769100  1
  O2-  O  1  0.82619200  0.17380800  0.11769100  1
  O2-  O  1  0.34761600  0.17380800  0.11769100  1
  O2-  O  1  0.65238400  0.82619200  0.61769100  1
