# generated using pymatgen
data_RbNa3Li12(SiO4)4
_symmetry_space_group_name_H-M   'P 1'
_cell_length_a   10.98541800
_cell_length_b   10.98541800
_cell_length_c   6.35578200
_cell_angle_alpha   90.00000000
_cell_angle_beta   90.00000000
_cell_angle_gamma   90.00000000
_symmetry_Int_Tables_number   1
_chemical_formula_structural   RbNa3Li12(SiO4)4
_chemical_formula_sum   'Rb2 Na6 Li24 Si8 O32'
_cell_volume   767.01201317
_cell_formula_units_Z   2
loop_
 _symmetry_equiv_pos_site_id
 _symmetry_equiv_pos_as_xyz
  1  'x, y, z'
loop_
 _atom_type_symbol
 _atom_type_oxidation_number
  Rb+  1.0
  Na+  1.0
  Li+  1.0
  Si4+  4.0
  O2-  -2.0
loop_
 _atom_site_type_symbol
 _atom_site_label
 _atom_site_symmetry_multiplicity
 _atom_site_fract_x
 _atom_site_fract_y
 _atom_site_fract_z
 _atom_site_occupancy
  Rb+  Rb  1  0.00000000  0.00000000  0.00000000  1
  Rb+  Rb  1  0.50000000  0.50000000  0.50000000  1
  Na+  Na  1  0.50000000  0.00000000  0.75000000  1
  Na+  Na  1  0.50000000  0.00000000  0.25000000  1
  Na+  Na  1  0.00000000  0.00000000  0.50000000  1
  Na+  Na  1  0.00000000  0.50000000  0.25000000  1
  Na+  Na  1  0.00000000  0.50000000  0.75000000  1
  Na+  Na  1  0.50000000  0.50000000  0.00000000  1
  Li+  Li  1  0.28627000  0.92752800  0.00000000  1
  Li+  Li  1  0.57247200  0.78627000  0.50000000  1
  Li+  Li  1  0.71373000  0.07247200  0.00000000  1
  Li+  Li  1  0.42752800  0.21373000  0.50000000  1
  Li+  Li  1  0.39243950  0.73392950  0.24326150  1
  Li+  Li  1  0.23392950  0.10756050  0.74326150  1
  Li+  Li  1  0.60756050  0.26607050  0.75673850  1
  Li+  Li  1  0.60756050  0.26607050  0.24326150  1
  Li+  Li  1  0.39243950  0.73392950  0.75673850  1
  Li+  Li  1  0.23392950  0.10756050  0.25673850  1
  Li+  Li  1  0.76607050  0.89243950  0.25673850  1
  Li+  Li  1  0.76607050  0.89243950  0.74326150  1
  Li+  Li  1  0.78627000  0.42752800  0.50000000  1
  Li+  Li  1  0.07247200  0.28627000  0.00000000  1
  Li+  Li  1  0.21373000  0.57247200  0.50000000  1
  Li+  Li  1  0.92752800  0.71373000  0.00000000  1
  Li+  Li  1  0.89243950  0.23392950  0.74326150  1
  Li+  Li  1  0.73392950  0.60756050  0.24326150  1
  Li+  Li  1  0.10756050  0.76607050  0.25673850  1
  Li+  Li  1  0.10756050  0.76607050  0.74326150  1
  Li+  Li  1  0.89243950  0.23392950  0.25673850  1
  Li+  Li  1  0.73392950  0.60756050  0.75673850  1
  Li+  Li  1  0.26607050  0.39243950  0.75673850  1
  Li+  Li  1  0.26607050  0.39243950  0.24326150  1
  Si4+  Si  1  0.57484650  0.78020550  0.00000000  1
  Si4+  Si  1  0.71979450  0.07484650  0.50000000  1
  Si4+  Si  1  0.28020550  0.92515350  0.50000000  1
  Si4+  Si  1  0.42515350  0.21979450  0.00000000  1
  Si4+  Si  1  0.07484650  0.28020550  0.50000000  1
  Si4+  Si  1  0.21979450  0.57484650  0.00000000  1
  Si4+  Si  1  0.78020550  0.42515350  0.00000000  1
  Si4+  Si  1  0.92515350  0.71979450  0.50000000  1
  O2-  O  1  0.41640350  0.30331350  0.21663450  1
  O2-  O  1  0.19668650  0.91640350  0.71663450  1
  O2-  O  1  0.58359650  0.69668650  0.21663450  1
  O2-  O  1  0.80331350  0.08359650  0.71663450  1
  O2-  O  1  0.80331350  0.08359650  0.28336550  1
  O2-  O  1  0.58359650  0.69668650  0.78336550  1
  O2-  O  1  0.19668650  0.91640350  0.28336550  1
  O2-  O  1  0.41640350  0.30331350  0.78336550  1
  O2-  O  1  0.66063150  0.93515550  0.50000000  1
  O2-  O  1  0.43515550  0.83936850  0.00000000  1
  O2-  O  1  0.56484450  0.16063150  0.00000000  1
  O2-  O  1  0.33936850  0.06484450  0.50000000  1
  O2-  O  1  0.67480600  0.89212100  0.00000000  1
  O2-  O  1  0.39212100  0.82519400  0.50000000  1
  O2-  O  1  0.60787900  0.17480600  0.50000000  1
  O2-  O  1  0.32519400  0.10787900  0.00000000  1
  O2-  O  1  0.91640350  0.80331350  0.71663450  1
  O2-  O  1  0.69668650  0.41640350  0.21663450  1
  O2-  O  1  0.08359650  0.19668650  0.71663450  1
  O2-  O  1  0.30331350  0.58359650  0.21663450  1
  O2-  O  1  0.30331350  0.58359650  0.78336550  1
  O2-  O  1  0.08359650  0.19668650  0.28336550  1
  O2-  O  1  0.69668650  0.41640350  0.78336550  1
  O2-  O  1  0.91640350  0.80331350  0.28336550  1
  O2-  O  1  0.16063150  0.43515550  0.00000000  1
  O2-  O  1  0.93515550  0.33936850  0.50000000  1
  O2-  O  1  0.06484450  0.66063150  0.50000000  1
  O2-  O  1  0.83936850  0.56484450  0.00000000  1
  O2-  O  1  0.17480600  0.39212100  0.50000000  1
  O2-  O  1  0.89212100  0.32519400  0.00000000  1
  O2-  O  1  0.10787900  0.67480600  0.00000000  1
  O2-  O  1  0.82519400  0.60787900  0.50000000  1
