# generated using pymatgen
data_BaLi(B3O5)3
_symmetry_space_group_name_H-M   'P 1'
_cell_length_a   10.98605481
_cell_length_b   10.98605481
_cell_length_c   17.03352873
_cell_angle_alpha   90.00000000
_cell_angle_beta   90.00000000
_cell_angle_gamma   120.00000000
_symmetry_Int_Tables_number   1
_chemical_formula_structural   BaLi(B3O5)3
_chemical_formula_sum   'Ba6 Li6 B54 O90'
_cell_volume   1780.40490415
_cell_formula_units_Z   6
loop_
 _symmetry_equiv_pos_site_id
 _symmetry_equiv_pos_as_xyz
  1  'x, y, z'
loop_
 _atom_type_symbol
 _atom_type_oxidation_number
  Ba2+  2.0
  Li+  1.0
  B3+  3.0
  O2-  -2.0
loop_
 _atom_site_type_symbol
 _atom_site_label
 _atom_site_symmetry_multiplicity
 _atom_site_fract_x
 _atom_site_fract_y
 _atom_site_fract_z
 _atom_site_occupancy
  Ba2+  Ba  1  0.33333333  0.66666667  0.16818876  1
  Ba2+  Ba  1  0.33333333  0.66666667  0.66818876  1
  Ba2+  Ba  1  0.00000000  0.00000000  0.50152209  1
  Ba2+  Ba  1  0.00000000  0.00000000  0.00152209  1
  Ba2+  Ba  1  0.66666667  0.33333333  0.83485542  1
  Ba2+  Ba  1  0.66666667  0.33333333  0.33485542  1
  Li+  Li  1  0.33333333  0.66666667  0.42234444  1
  Li+  Li  1  0.33333333  0.66666667  0.92234444  1
  Li+  Li  1  0.00000000  0.00000000  0.75567777  1
  Li+  Li  1  0.00000000  0.00000000  0.25567777  1
  Li+  Li  1  0.66666667  0.33333333  0.08901110  1
  Li+  Li  1  0.66666667  0.33333333  0.58901110  1
  B3+  B  1  0.20270651  0.26756038  0.18865690  1
  B3+  B  1  0.23636808  0.90271674  0.08340217  1
  B3+  B  1  0.43061660  0.43029858  0.25006883  1
  B3+  B  1  0.56970142  0.00031801  0.25006883  1
  B3+  B  1  0.39818720  0.93422704  0.35532356  1
  B3+  B  1  0.06577296  0.46396015  0.35532356  1
  B3+  B  1  0.53603985  0.60181280  0.35532356  1
  B3+  B  1  0.66634865  0.76363192  0.08340217  1
  B3+  B  1  0.06485386  0.79729349  0.18865690  1
  B3+  B  1  0.73243962  0.93514614  0.18865690  1
  B3+  B  1  0.60187489  0.53623256  0.14484754  1
  B3+  B  1  0.46376744  0.06564233  0.14484754  1
  B3+  B  1  0.93435767  0.39812511  0.14484754  1
  B3+  B  1  0.26854156  0.39897566  0.97818087  1
  B3+  B  1  0.60102434  0.86956589  0.97818087  1
  B3+  B  1  0.13043411  0.73145844  0.97818087  1
  B3+  B  1  0.09728326  0.33365135  0.08340217  1
  B3+  B  1  0.99968199  0.56938340  0.25006883  1
  B3+  B  1  0.86937318  0.60089371  0.52199023  1
  B3+  B  1  0.90303475  0.23605007  0.41673550  1
  B3+  B  1  0.09728326  0.76363192  0.58340217  1
  B3+  B  1  0.23636808  0.33365135  0.58340217  1
  B3+  B  1  0.06485386  0.26756038  0.68865690  1
  B3+  B  1  0.73243962  0.79729349  0.68865690  1
  B3+  B  1  0.20270651  0.93514614  0.68865690  1
  B3+  B  1  0.33301532  0.09696525  0.41673550  1
  B3+  B  1  0.73152053  0.13062682  0.52199023  1
  B3+  B  1  0.39910629  0.26847947  0.52199023  1
  B3+  B  1  0.26854156  0.86956589  0.47818087  1
  B3+  B  1  0.13043411  0.39897566  0.47818087  1
  B3+  B  1  0.60102434  0.73145844  0.47818087  1
  B3+  B  1  0.93520822  0.73230900  0.31151421  1
  B3+  B  1  0.26769100  0.20289923  0.31151421  1
  B3+  B  1  0.79710077  0.06479178  0.31151421  1
  B3+  B  1  0.76394993  0.66698468  0.41673550  1
  B3+  B  1  0.66634865  0.90271674  0.58340217  1
  B3+  B  1  0.53603985  0.93422704  0.85532356  1
  B3+  B  1  0.56970142  0.56938340  0.75006883  1
  B3+  B  1  0.76394993  0.09696525  0.91673550  1
  B3+  B  1  0.90303475  0.66698468  0.91673550  1
  B3+  B  1  0.73152053  0.60089371  0.02199023  1
  B3+  B  1  0.39910629  0.13062682  0.02199023  1
  B3+  B  1  0.86937318  0.26847947  0.02199023  1
  B3+  B  1  0.99968199  0.43029858  0.75006883  1
  B3+  B  1  0.39818720  0.46396015  0.85532356  1
  B3+  B  1  0.06577296  0.60181280  0.85532356  1
  B3+  B  1  0.93520822  0.20289923  0.81151421  1
  B3+  B  1  0.79710077  0.73230900  0.81151421  1
  B3+  B  1  0.26769100  0.06479178  0.81151421  1
  B3+  B  1  0.60187489  0.06564233  0.64484754  1
  B3+  B  1  0.93435767  0.53623256  0.64484754  1
  B3+  B  1  0.46376744  0.39812511  0.64484754  1
  B3+  B  1  0.43061660  0.00031801  0.75006883  1
  B3+  B  1  0.33301532  0.23605007  0.91673550  1
  O2-  O  1  0.11483176  0.22725852  0.12659321  1
  O2-  O  1  0.77274148  0.88757325  0.12659321  1
  O2-  O  1  0.60315670  0.92058763  0.19417155  1
  O2-  O  1  0.31743092  0.39684330  0.19417155  1
  O2-  O  1  0.11242675  0.88516824  0.12659321  1
  O2-  O  1  0.98409759  0.25392096  0.02750488  1
  O2-  O  1  0.26982337  0.01590241  0.02750488  1
  O2-  O  1  0.74607904  0.73017663  0.02750488  1
  O2-  O  1  0.55212963  0.10671522  0.20674052  1
  O2-  O  1  0.55458560  0.44787037  0.20674052  1
  O2-  O  1  0.89328478  0.44541440  0.20674052  1
  O2-  O  1  0.22125226  0.44004856  0.04007386  1
  O2-  O  1  0.21879629  0.77874774  0.04007386  1
  O2-  O  1  0.55995144  0.78120371  0.04007386  1
  O2-  O  1  0.44816510  0.55423991  0.29325987  1
  O2-  O  1  0.44576009  0.89392518  0.29325987  1
  O2-  O  1  0.58660053  0.65046147  0.13931820  1
  O2-  O  1  0.34953853  0.93613907  0.13931820  1
  O2-  O  1  0.06386093  0.41339947  0.13931820  1
  O2-  O  1  0.91993387  0.60280573  0.30598486  1
  O2-  O  1  0.39719427  0.31712813  0.30598486  1
  O2-  O  1  0.68287187  0.08006613  0.30598486  1
  O2-  O  1  0.33365037  0.83838488  0.41687096  1
  O2-  O  1  0.16161512  0.49526550  0.41687096  1
  O2-  O  1  0.50473450  0.66634963  0.41687096  1
  O2-  O  1  0.33365037  0.49526550  0.91687096  1
  O2-  O  1  0.50473450  0.83838488  0.91687096  1
  O2-  O  1  0.16161512  0.66634963  0.91687096  1
  O2-  O  1  0.07941237  0.68256908  0.19417155  1
  O2-  O  1  0.10607482  0.55183490  0.29325987  1
  O2-  O  1  0.78149843  0.56059185  0.45992654  1
  O2-  O  1  0.43940815  0.22090658  0.45992654  1
  O2-  O  1  0.26982337  0.25392096  0.52750488  1
  O2-  O  1  0.98409759  0.73017663  0.52750488  1
  O2-  O  1  0.77909342  0.21850157  0.45992654  1
  O2-  O  1  0.65076426  0.58725429  0.36083821  1
  O2-  O  1  0.93649004  0.34923574  0.36083821  1
  O2-  O  1  0.41274571  0.06350996  0.36083821  1
  O2-  O  1  0.21879629  0.44004856  0.54007386  1
  O2-  O  1  0.22125226  0.78120371  0.54007386  1
  O2-  O  1  0.55995144  0.77874774  0.54007386  1
  O2-  O  1  0.88791893  0.77338189  0.37340719  1
  O2-  O  1  0.88546296  0.11208107  0.37340719  1
  O2-  O  1  0.22661811  0.11453704  0.37340719  1
  O2-  O  1  0.11483176  0.88757325  0.62659321  1
  O2-  O  1  0.11242675  0.22725852  0.62659321  1
  O2-  O  1  0.25326720  0.98379480  0.47265153  1
  O2-  O  1  0.01620520  0.26947240  0.47265153  1
  O2-  O  1  0.73052760  0.74673280  0.47265153  1
  O2-  O  1  0.58660053  0.93613907  0.63931820  1
  O2-  O  1  0.06386093  0.65046147  0.63931820  1
  O2-  O  1  0.34953853  0.41339947  0.63931820  1
  O2-  O  1  0.00031704  0.17171821  0.75020429  1
  O2-  O  1  0.82828179  0.82859883  0.75020429  1
  O2-  O  1  0.17140117  0.99968296  0.75020429  1
  O2-  O  1  0.00031704  0.82859883  0.25020429  1
  O2-  O  1  0.17140117  0.17171821  0.25020429  1
  O2-  O  1  0.82828179  0.99968296  0.25020429  1
  O2-  O  1  0.74607904  0.01590241  0.52750488  1
  O2-  O  1  0.77274148  0.88516824  0.62659321  1
  O2-  O  1  0.44816510  0.89392518  0.79325987  1
  O2-  O  1  0.10607482  0.55423991  0.79325987  1
  O2-  O  1  0.93649004  0.58725429  0.86083821  1
  O2-  O  1  0.65076426  0.06350996  0.86083821  1
  O2-  O  1  0.44576009  0.55183490  0.79325987  1
  O2-  O  1  0.31743092  0.92058763  0.69417155  1
  O2-  O  1  0.60315670  0.68256908  0.69417155  1
  O2-  O  1  0.07941237  0.39684330  0.69417155  1
  O2-  O  1  0.88546296  0.77338189  0.87340719  1
  O2-  O  1  0.88791893  0.11453704  0.87340719  1
  O2-  O  1  0.22661811  0.11208107  0.87340719  1
  O2-  O  1  0.55458560  0.10671522  0.70674052  1
  O2-  O  1  0.55212963  0.44541440  0.70674052  1
  O2-  O  1  0.89328478  0.44787037  0.70674052  1
  O2-  O  1  0.78149843  0.22090658  0.95992654  1
  O2-  O  1  0.77909342  0.56059185  0.95992654  1
  O2-  O  1  0.91993387  0.31712813  0.80598486  1
  O2-  O  1  0.68287187  0.60280573  0.80598486  1
  O2-  O  1  0.39719427  0.08006613  0.80598486  1
  O2-  O  1  0.25326720  0.26947240  0.97265153  1
  O2-  O  1  0.73052760  0.98379480  0.97265153  1
  O2-  O  1  0.01620520  0.74673280  0.97265153  1
  O2-  O  1  0.66698371  0.50505154  0.08353762  1
  O2-  O  1  0.49494846  0.16193216  0.08353762  1
  O2-  O  1  0.83806784  0.33301629  0.08353762  1
  O2-  O  1  0.66698371  0.16193216  0.58353762  1
  O2-  O  1  0.83806784  0.50505154  0.58353762  1
  O2-  O  1  0.49494846  0.33301629  0.58353762  1
  O2-  O  1  0.41274571  0.34923574  0.86083821  1
  O2-  O  1  0.43940815  0.21850157  0.95992654  1
