# generated using pymatgen
data_CsKNa2Li12(SiO4)4
_symmetry_space_group_name_H-M   'P 1'
_cell_length_a   11.14050800
_cell_length_b   11.14050800
_cell_length_c   6.43116200
_cell_angle_alpha   90.00000000
_cell_angle_beta   90.00000000
_cell_angle_gamma   90.00000000
_symmetry_Int_Tables_number   1
_chemical_formula_structural   CsKNa2Li12(SiO4)4
_chemical_formula_sum   'Cs2 K2 Na4 Li24 Si8 O32'
_cell_volume   798.17742283
_cell_formula_units_Z   2
loop_
 _symmetry_equiv_pos_site_id
 _symmetry_equiv_pos_as_xyz
  1  'x, y, z'
loop_
 _atom_type_symbol
 _atom_type_oxidation_number
  Cs+  1.0
  K+  1.0
  Na+  1.0
  Li+  1.0
  Si4+  4.0
  O2-  -2.0
loop_
 _atom_site_type_symbol
 _atom_site_label
 _atom_site_symmetry_multiplicity
 _atom_site_fract_x
 _atom_site_fract_y
 _atom_site_fract_z
 _atom_site_occupancy
  Cs+  Cs  1  0.00000000  0.00000000  0.00000000  1
  Cs+  Cs  1  0.50000000  0.50000000  0.50000000  1
  K+  K  1  0.00000000  0.00000000  0.50000000  1
  K+  K  1  0.50000000  0.50000000  0.00000000  1
  Na+  Na  1  0.50000000  0.00000000  0.75000000  1
  Na+  Na  1  0.50000000  0.00000000  0.25000000  1
  Na+  Na  1  0.00000000  0.50000000  0.25000000  1
  Na+  Na  1  0.00000000  0.50000000  0.75000000  1
  Li+  Li  1  0.42639700  0.78994800  0.50000000  1
  Li+  Li  1  0.28994800  0.07360300  0.00000000  1
  Li+  Li  1  0.57360300  0.21005200  0.50000000  1
  Li+  Li  1  0.71005200  0.92639700  0.00000000  1
  Li+  Li  1  0.61274450  0.74151750  0.24090550  1
  Li+  Li  1  0.75848250  0.11274450  0.74090550  1
  Li+  Li  1  0.38725550  0.25848250  0.75909450  1
  Li+  Li  1  0.38725550  0.25848250  0.24090550  1
  Li+  Li  1  0.61274450  0.74151750  0.75909450  1
  Li+  Li  1  0.75848250  0.11274450  0.25909450  1
  Li+  Li  1  0.24151750  0.88725550  0.25909450  1
  Li+  Li  1  0.24151750  0.88725550  0.74090550  1
  Li+  Li  1  0.92639700  0.28994800  0.00000000  1
  Li+  Li  1  0.78994800  0.57360300  0.50000000  1
  Li+  Li  1  0.07360300  0.71005200  0.00000000  1
  Li+  Li  1  0.21005200  0.42639700  0.50000000  1
  Li+  Li  1  0.11274450  0.24151750  0.74090550  1
  Li+  Li  1  0.25848250  0.61274450  0.24090550  1
  Li+  Li  1  0.88725550  0.75848250  0.25909450  1
  Li+  Li  1  0.88725550  0.75848250  0.74090550  1
  Li+  Li  1  0.11274450  0.24151750  0.25909450  1
  Li+  Li  1  0.25848250  0.61274450  0.75909450  1
  Li+  Li  1  0.74151750  0.38725550  0.75909450  1
  Li+  Li  1  0.74151750  0.38725550  0.24090550  1
  Si4+  Si  1  0.28547100  0.07854200  0.50000000  1
  Si4+  Si  1  0.71452900  0.92145800  0.50000000  1
  Si4+  Si  1  0.42145800  0.78547100  0.00000000  1
  Si4+  Si  1  0.57854200  0.21452900  0.00000000  1
  Si4+  Si  1  0.78547100  0.57854200  0.00000000  1
  Si4+  Si  1  0.21452900  0.42145800  0.00000000  1
  Si4+  Si  1  0.92145800  0.28547100  0.50000000  1
  Si4+  Si  1  0.07854200  0.71452900  0.50000000  1
  O2-  O  1  0.59393150  0.29473850  0.78471750  1
  O2-  O  1  0.79473850  0.90606850  0.28471750  1
  O2-  O  1  0.40606850  0.70526150  0.78471750  1
  O2-  O  1  0.20526150  0.09393150  0.28471750  1
  O2-  O  1  0.20526150  0.09393150  0.71528250  1
  O2-  O  1  0.40606850  0.70526150  0.21528250  1
  O2-  O  1  0.79473850  0.90606850  0.71528250  1
  O2-  O  1  0.59393150  0.29473850  0.21528250  1
  O2-  O  1  0.43849850  0.16197350  0.00000000  1
  O2-  O  1  0.33802650  0.93849850  0.50000000  1
  O2-  O  1  0.66197350  0.06150150  0.50000000  1
  O2-  O  1  0.56150150  0.83802650  0.00000000  1
  O2-  O  1  0.60002600  0.82723100  0.50000000  1
  O2-  O  1  0.67276900  0.10002600  0.00000000  1
  O2-  O  1  0.32723100  0.89997400  0.00000000  1
  O2-  O  1  0.39997400  0.17276900  0.50000000  1
  O2-  O  1  0.09393150  0.79473850  0.28471750  1
  O2-  O  1  0.29473850  0.40606850  0.78471750  1
  O2-  O  1  0.90606850  0.20526150  0.28471750  1
  O2-  O  1  0.70526150  0.59393150  0.78471750  1
  O2-  O  1  0.70526150  0.59393150  0.21528250  1
  O2-  O  1  0.90606850  0.20526150  0.71528250  1
  O2-  O  1  0.29473850  0.40606850  0.21528250  1
  O2-  O  1  0.09393150  0.79473850  0.71528250  1
  O2-  O  1  0.93849850  0.66197350  0.50000000  1
  O2-  O  1  0.83802650  0.43849850  0.00000000  1
  O2-  O  1  0.16197350  0.56150150  0.00000000  1
  O2-  O  1  0.06150150  0.33802650  0.50000000  1
  O2-  O  1  0.10002600  0.32723100  0.00000000  1
  O2-  O  1  0.17276900  0.60002600  0.50000000  1
  O2-  O  1  0.82723100  0.39997400  0.50000000  1
  O2-  O  1  0.89997400  0.67276900  0.00000000  1
