# generated using pymatgen
data_LiAlSiO4
_symmetry_space_group_name_H-M   'P 1'
_cell_length_a   13.43245874
_cell_length_b   13.43245874
_cell_length_c   8.96358904
_cell_angle_alpha   90.00000000
_cell_angle_beta   90.00000000
_cell_angle_gamma   120.00000000
_symmetry_Int_Tables_number   1
_chemical_formula_structural   LiAlSiO4
_chemical_formula_sum   'Li18 Al18 Si18 O72'
_cell_volume   1400.63056388
_cell_formula_units_Z   18
loop_
 _symmetry_equiv_pos_site_id
 _symmetry_equiv_pos_as_xyz
  1  'x, y, z'
loop_
 _atom_type_symbol
 _atom_type_oxidation_number
  Li+  1.0
  Al3+  3.0
  Si4+  4.0
  O2-  -2.0
loop_
 _atom_site_type_symbol
 _atom_site_label
 _atom_site_symmetry_multiplicity
 _atom_site_fract_x
 _atom_site_fract_y
 _atom_site_fract_z
 _atom_site_occupancy
  Li+  Li  1  0.98307330  0.18947201  0.24930123  1
  Li+  Li  1  0.81052799  0.79360130  0.24930123  1
  Li+  Li  1  0.20639870  0.01692670  0.24930123  1
  Li+  Li  1  0.01978033  0.81028029  0.75145949  1
  Li+  Li  1  0.18971971  0.20950003  0.75145949  1
  Li+  Li  1  0.79049997  0.98021967  0.75145949  1
  Li+  Li  1  0.64973997  0.52280534  0.58263456  1
  Li+  Li  1  0.47719466  0.12693463  0.58263456  1
  Li+  Li  1  0.87306537  0.35026003  0.58263456  1
  Li+  Li  1  0.68644699  0.14361363  0.08479283  1
  Li+  Li  1  0.85638637  0.54283337  0.08479283  1
  Li+  Li  1  0.45716663  0.31355301  0.08479283  1
  Li+  Li  1  0.31640664  0.85613867  0.91596789  1
  Li+  Li  1  0.14386133  0.46026796  0.91596789  1
  Li+  Li  1  0.53973204  0.68359336  0.91596789  1
  Li+  Li  1  0.35311366  0.47694696  0.41812616  1
  Li+  Li  1  0.52305304  0.87616670  0.41812616  1
  Li+  Li  1  0.12383330  0.64688634  0.41812616  1
  Al3+  Al  1  0.19690569  0.20882760  0.41774959  1
  Al3+  Al  1  0.13634162  0.45223744  0.58458158  1
  Al3+  Al  1  0.01192190  0.80309431  0.41774959  1
  Al3+  Al  1  0.79117240  0.98807810  0.41774959  1
  Al3+  Al  1  0.54776256  0.68410417  0.58458158  1
  Al3+  Al  1  0.31589583  0.86365838  0.58458158  1
  Al3+  Al  1  0.86357236  0.54216093  0.75108292  1
  Al3+  Al  1  0.80300828  0.78557078  0.91791492  1
  Al3+  Al  1  0.67858857  0.13642764  0.75108292  1
  Al3+  Al  1  0.45783907  0.32141143  0.75108292  1
  Al3+  Al  1  0.21442922  0.01743751  0.91791492  1
  Al3+  Al  1  0.98256249  0.19699172  0.91791492  1
  Al3+  Al  1  0.53023903  0.87549426  0.08441625  1
  Al3+  Al  1  0.46967495  0.11890411  0.25124825  1
  Al3+  Al  1  0.34525524  0.46976097  0.08441625  1
  Al3+  Al  1  0.12450574  0.65474476  0.08441625  1
  Al3+  Al  1  0.88109589  0.35077084  0.25124825  1
  Al3+  Al  1  0.64922916  0.53032505  0.25124825  1
  Si4+  Si  1  0.20923090  0.01137691  0.58328030  1
  Si4+  Si  1  0.98862309  0.19785399  0.58328030  1
  Si4+  Si  1  0.80214601  0.79076910  0.58328030  1
  Si4+  Si  1  0.86363443  0.54631283  0.41673796  1
  Si4+  Si  1  0.68267840  0.13636557  0.41673796  1
  Si4+  Si  1  0.45368717  0.31732160  0.41673796  1
  Si4+  Si  1  0.87589757  0.34471024  0.91661363  1
  Si4+  Si  1  0.65528976  0.53118732  0.91661363  1
  Si4+  Si  1  0.46881268  0.12410243  0.91661363  1
  Si4+  Si  1  0.53030110  0.87964616  0.75007129  1
  Si4+  Si  1  0.34934507  0.46969890  0.75007129  1
  Si4+  Si  1  0.12035384  0.65065493  0.75007129  1
  Si4+  Si  1  0.54256423  0.67804358  0.24994697  1
  Si4+  Si  1  0.32195642  0.86452066  0.24994697  1
  Si4+  Si  1  0.13547934  0.45743577  0.24994697  1
  Si4+  Si  1  0.19696776  0.21297950  0.08340463  1
  Si4+  Si  1  0.01601173  0.80303224  0.08340463  1
  Si4+  Si  1  0.78702050  0.98398827  0.08340463  1
  O2-  O  1  0.78646733  0.54834687  0.27816733  1
  O2-  O  1  0.67424859  0.01131561  0.41675839  1
  O2-  O  1  0.33706702  0.32575141  0.41675839  1
  O2-  O  1  0.98868439  0.66293298  0.41675839  1
  O2-  O  1  0.32282066  0.99768618  0.58413579  1
  O2-  O  1  0.67486553  0.67717934  0.58413579  1
  O2-  O  1  0.00231382  0.32513447  0.58413579  1
  O2-  O  1  0.45165313  0.23812047  0.27816733  1
  O2-  O  1  0.09828170  0.88273218  0.56678138  1
  O2-  O  1  0.76187953  0.21353267  0.27816733  1
  O2-  O  1  0.54929334  0.76995684  0.73176281  1
  O2-  O  1  0.22066351  0.45070666  0.73176281  1
  O2-  O  1  0.91342758  0.12311523  0.44218848  1
  O2-  O  1  0.87688477  0.79031235  0.44218848  1
  O2-  O  1  0.20968765  0.08657242  0.44218848  1
  O2-  O  1  0.93229182  0.13333212  0.74110338  1
  O2-  O  1  0.11726782  0.21554952  0.56678138  1
  O2-  O  1  0.78445048  0.90171830  0.56678138  1
  O2-  O  1  0.79916006  0.93267084  0.24337263  1
  O2-  O  1  0.86666788  0.79895970  0.74110338  1
  O2-  O  1  0.20104030  0.06770818  0.74110338  1
  O2-  O  1  0.06732916  0.86648923  0.24337263  1
  O2-  O  1  0.13351077  0.20083994  0.24337263  1
  O2-  O  1  0.23004316  0.77933649  0.73176281  1
  O2-  O  1  0.45313400  0.88168020  0.61150066  1
  O2-  O  1  0.34091526  0.34464894  0.75009172  1
  O2-  O  1  0.00373369  0.65908474  0.75009172  1
  O2-  O  1  0.65535106  0.99626631  0.75009172  1
  O2-  O  1  0.98948732  0.33101952  0.91746913  1
  O2-  O  1  0.34153219  0.01051268  0.91746913  1
  O2-  O  1  0.66898048  0.65846781  0.91746913  1
  O2-  O  1  0.11831980  0.57145380  0.61150066  1
  O2-  O  1  0.76494837  0.21606551  0.90011471  1
  O2-  O  1  0.42854620  0.54686600  0.61150066  1
  O2-  O  1  0.21596000  0.10329018  0.06509615  1
  O2-  O  1  0.88733017  0.78404000  0.06509615  1
  O2-  O  1  0.58009425  0.45644856  0.77552181  1
  O2-  O  1  0.54355144  0.12364568  0.77552181  1
  O2-  O  1  0.87635432  0.41990575  0.77552181  1
  O2-  O  1  0.59895849  0.46666545  0.07443671  1
  O2-  O  1  0.78393449  0.54888285  0.90011471  1
  O2-  O  1  0.45111715  0.23505163  0.90011471  1
  O2-  O  1  0.46582673  0.26600417  0.57670596  1
  O2-  O  1  0.53333455  0.13229303  0.07443671  1
  O2-  O  1  0.86770697  0.40104151  0.07443671  1
  O2-  O  1  0.73399583  0.19982256  0.57670596  1
  O2-  O  1  0.80017744  0.53417327  0.57670596  1
  O2-  O  1  0.89670982  0.11266983  0.06509615  1
  O2-  O  1  0.11980067  0.21501353  0.94483399  1
  O2-  O  1  0.00758192  0.67798228  0.08342506  1
  O2-  O  1  0.67040035  0.99241808  0.08342506  1
  O2-  O  1  0.32201772  0.32959965  0.08342506  1
  O2-  O  1  0.65615399  0.66435285  0.25080246  1
  O2-  O  1  0.00819886  0.34384601  0.25080246  1
  O2-  O  1  0.33564715  0.99180114  0.25080246  1
  O2-  O  1  0.78498647  0.90478713  0.94483399  1
  O2-  O  1  0.43161503  0.54939885  0.23344805  1
  O2-  O  1  0.09521287  0.88019933  0.94483399  1
  O2-  O  1  0.88262667  0.43662351  0.39842948  1
  O2-  O  1  0.55399684  0.11737333  0.39842948  1
  O2-  O  1  0.24676091  0.78978190  0.10885515  1
  O2-  O  1  0.21021810  0.45697902  0.10885515  1
  O2-  O  1  0.54302098  0.75323909  0.10885515  1
  O2-  O  1  0.26562515  0.79999879  0.40777005  1
  O2-  O  1  0.45060115  0.88221619  0.23344805  1
  O2-  O  1  0.11778381  0.56838497  0.23344805  1
  O2-  O  1  0.13249340  0.59933750  0.91003929  1
  O2-  O  1  0.20000121  0.46562637  0.40777005  1
  O2-  O  1  0.53437363  0.73437485  0.40777005  1
  O2-  O  1  0.40066250  0.53315589  0.91003929  1
  O2-  O  1  0.46684411  0.86750660  0.91003929  1
  O2-  O  1  0.56337649  0.44600316  0.39842948  1
