# generated using pymatgen
data_LiCrO2
_symmetry_space_group_name_H-M   'P 1'
_cell_length_a   2.91927466
_cell_length_b   2.91927466
_cell_length_c   14.25272095
_cell_angle_alpha   90.00000000
_cell_angle_beta   90.00000000
_cell_angle_gamma   120.00000000
_symmetry_Int_Tables_number   1
_chemical_formula_structural   LiCrO2
_chemical_formula_sum   'Li3 Cr3 O6'
_cell_volume   105.19093847
_cell_formula_units_Z   3
loop_
 _symmetry_equiv_pos_site_id
 _symmetry_equiv_pos_as_xyz
  1  'x, y, z'
loop_
 _atom_type_symbol
 _atom_type_oxidation_number
  Li+  1.0
  Cr3+  3.0
  O2-  -2.0
loop_
 _atom_site_type_symbol
 _atom_site_label
 _atom_site_symmetry_multiplicity
 _atom_site_fract_x
 _atom_site_fract_y
 _atom_site_fract_z
 _atom_site_occupancy
  Li+  Li  1  0.00000000  0.00000000  0.00000000  1
  Li+  Li  1  0.66666667  0.33333333  0.33333333  1
  Li+  Li  1  0.33333333  0.66666667  0.66666667  1
  Cr3+  Cr  1  0.33333333  0.66666667  0.16666667  1
  Cr3+  Cr  1  1.00000000  1.00000000  0.50000000  1
  Cr3+  Cr  1  0.66666667  0.33333333  0.83333333  1
  O2-  O  1  0.00000000  0.00000000  0.24187645  1
  O2-  O  1  0.66666667  0.33333333  0.09145688  1
  O2-  O  1  0.66666667  0.33333333  0.57520978  1
  O2-  O  1  0.33333333  0.66666667  0.42479022  1
  O2-  O  1  0.33333333  0.66666667  0.90854312  1
  O2-  O  1  0.00000000  0.00000000  0.75812355  1
