# generated using pymatgen
data_LiVO3
_symmetry_space_group_name_H-M   'P 1'
_cell_length_a   10.26265270
_cell_length_b   8.32706806
_cell_length_c   5.83465041
_cell_angle_alpha   90.00000000
_cell_angle_beta   111.58718680
_cell_angle_gamma   90.00000000
_symmetry_Int_Tables_number   1
_chemical_formula_structural   LiVO3
_chemical_formula_sum   'Li8 V8 O24'
_cell_volume   463.64287044
_cell_formula_units_Z   8
loop_
 _symmetry_equiv_pos_site_id
 _symmetry_equiv_pos_as_xyz
  1  'x, y, z'
loop_
 _atom_type_symbol
 _atom_type_oxidation_number
  Li+  1.0
  V5+  5.0
  O2-  -2.0
loop_
 _atom_site_type_symbol
 _atom_site_label
 _atom_site_symmetry_multiplicity
 _atom_site_fract_x
 _atom_site_fract_y
 _atom_site_fract_z
 _atom_site_occupancy
  Li+  Li  1  0.00000000  0.91955996  0.25000000  1
  Li+  Li  1  0.00000000  0.08044004  0.75000000  1
  Li+  Li  1  0.00000000  0.27686614  0.25000000  1
  Li+  Li  1  0.00000000  0.72313386  0.75000000  1
  Li+  Li  1  0.50000000  0.41955996  0.25000000  1
  Li+  Li  1  0.50000000  0.58044004  0.75000000  1
  Li+  Li  1  0.50000000  0.77686614  0.25000000  1
  Li+  Li  1  0.50000000  0.22313386  0.75000000  1
  V5+  V  1  0.78452603  0.59517274  0.26413833  1
  V5+  V  1  0.78452603  0.40482726  0.76413833  1
  V5+  V  1  0.21547397  0.40482726  0.73586167  1
  V5+  V  1  0.21547397  0.59517274  0.23586167  1
  V5+  V  1  0.28452603  0.09517274  0.26413833  1
  V5+  V  1  0.28452603  0.90482726  0.76413833  1
  V5+  V  1  0.71547397  0.90482726  0.73586167  1
  V5+  V  1  0.71547397  0.09517274  0.23586167  1
  O2-  O  1  0.14719247  0.46841440  0.41958568  1
  O2-  O  1  0.85280753  0.53158560  0.58041432  1
  O2-  O  1  0.14719247  0.53158560  0.91958568  1
  O2-  O  1  0.88971351  0.88844384  0.83765736  1
  O2-  O  1  0.11028649  0.11155616  0.16234264  1
  O2-  O  1  0.88971351  0.11155616  0.33765736  1
  O2-  O  1  0.85214167  0.77520071  0.27698366  1
  O2-  O  1  0.11028649  0.88844384  0.66234264  1
  O2-  O  1  0.85214167  0.22479929  0.77698366  1
  O2-  O  1  0.14785833  0.77520071  0.22301634  1
  O2-  O  1  0.14785833  0.22479929  0.72301634  1
  O2-  O  1  0.85280753  0.46841440  0.08041432  1
  O2-  O  1  0.64719247  0.96841440  0.41958568  1
  O2-  O  1  0.35280753  0.03158560  0.58041432  1
  O2-  O  1  0.64719247  0.03158560  0.91958568  1
  O2-  O  1  0.38971351  0.38844384  0.83765736  1
  O2-  O  1  0.61028649  0.61155616  0.16234264  1
  O2-  O  1  0.38971351  0.61155616  0.33765736  1
  O2-  O  1  0.35214167  0.27520071  0.27698366  1
  O2-  O  1  0.61028649  0.38844384  0.66234264  1
  O2-  O  1  0.35214167  0.72479929  0.77698366  1
  O2-  O  1  0.64785833  0.27520071  0.22301634  1
  O2-  O  1  0.64785833  0.72479929  0.72301634  1
  O2-  O  1  0.35280753  0.96841440  0.08041432  1
