# generated using pymatgen
data_LiNiPO4
_symmetry_space_group_name_H-M   'P 1'
_cell_length_a   4.73214600
_cell_length_b   5.92667200
_cell_length_c   10.14381000
_cell_angle_alpha   90.00000000
_cell_angle_beta   90.00000000
_cell_angle_gamma   90.00000000
_symmetry_Int_Tables_number   1
_chemical_formula_structural   LiNiPO4
_chemical_formula_sum   'Li4 Ni4 P4 O16'
_cell_volume   284.49204982
_cell_formula_units_Z   4
loop_
 _symmetry_equiv_pos_site_id
 _symmetry_equiv_pos_as_xyz
  1  'x, y, z'
loop_
 _atom_type_symbol
 _atom_type_oxidation_number
  Li+  1.0
  Ni2+  2.0
  P5+  5.0
  O2-  -2.0
loop_
 _atom_site_type_symbol
 _atom_site_label
 _atom_site_symmetry_multiplicity
 _atom_site_fract_x
 _atom_site_fract_y
 _atom_site_fract_z
 _atom_site_occupancy
  Li+  Li  1  0.99820200  0.25043700  0.24890200  1
  Li+  Li  1  0.00179800  0.75043700  0.25109800  1
  Li+  Li  1  0.50179800  0.74956300  0.74890200  1
  Li+  Li  1  0.49820200  0.24956300  0.75109800  1
  Ni2+  Ni  1  0.51841400  0.00079600  0.47429600  1
  Ni2+  Ni  1  0.98158600  0.99920400  0.97429600  1
  Ni2+  Ni  1  0.48158600  0.50079600  0.02570400  1
  Ni2+  Ni  1  0.01841400  0.49920400  0.52570400  1
  P5+  P  1  0.41675800  0.00108800  0.15578000  1
  P5+  P  1  0.58324200  0.50108800  0.34422000  1
  P5+  P  1  0.08324200  0.99891200  0.65578000  1
  P5+  P  1  0.91675800  0.49891200  0.84422000  1
  O2-  O  1  0.27492200  0.20829700  0.08456200  1
  O2-  O  1  0.72507800  0.70829700  0.41543800  1
  O2-  O  1  0.22507800  0.79170300  0.58456200  1
  O2-  O  1  0.77492200  0.29170300  0.91543800  1
  O2-  O  1  0.27555800  0.79353000  0.08449200  1
  O2-  O  1  0.72444200  0.29353000  0.41550800  1
  O2-  O  1  0.22444200  0.20647000  0.58449200  1
  O2-  O  1  0.77555800  0.70647000  0.91550800  1
  O2-  O  1  0.74094400  0.00091000  0.15020000  1
  O2-  O  1  0.25905600  0.50091000  0.34980000  1
  O2-  O  1  0.75905600  0.99909000  0.65020000  1
  O2-  O  1  0.24094400  0.49909000  0.84980000  1
  O2-  O  1  0.70089900  0.50119400  0.20110900  1
  O2-  O  1  0.29910100  0.00119400  0.29889100  1
  O2-  O  1  0.79910100  0.49880600  0.70110900  1
  O2-  O  1  0.20089900  0.99880600  0.79889100  1
