# generated using pymatgen
data_Li4Al3Si3ClO12
_symmetry_space_group_name_H-M   'P 1'
_cell_length_a   8.53221700
_cell_length_b   8.53221700
_cell_length_c   8.53221700
_cell_angle_alpha   90.00000000
_cell_angle_beta   90.00000000
_cell_angle_gamma   90.00000000
_symmetry_Int_Tables_number   1
_chemical_formula_structural   Li4Al3Si3ClO12
_chemical_formula_sum   'Li8 Al6 Si6 Cl2 O24'
_cell_volume   621.13453553
_cell_formula_units_Z   2
loop_
 _symmetry_equiv_pos_site_id
 _symmetry_equiv_pos_as_xyz
  1  'x, y, z'
loop_
 _atom_type_symbol
 _atom_type_oxidation_number
  Li+  1.0
  Al3+  3.0
  Si4+  4.0
  Cl-  -1.0
  O2-  -2.0
loop_
 _atom_site_type_symbol
 _atom_site_label
 _atom_site_symmetry_multiplicity
 _atom_site_fract_x
 _atom_site_fract_y
 _atom_site_fract_z
 _atom_site_occupancy
  Li+  Li  1  0.17427300  0.17427300  0.17427300  1
  Li+  Li  1  0.67427300  0.67427300  0.67427300  1
  Li+  Li  1  0.82572700  0.17427300  0.82572700  1
  Li+  Li  1  0.32572700  0.67427300  0.32572700  1
  Li+  Li  1  0.32572700  0.32572700  0.67427300  1
  Li+  Li  1  0.67427300  0.32572700  0.32572700  1
  Li+  Li  1  0.82572700  0.82572700  0.17427300  1
  Li+  Li  1  0.17427300  0.82572700  0.82572700  1
  Al3+  Al  1  0.00000000  0.75000000  0.50000000  1
  Al3+  Al  1  0.25000000  0.50000000  0.00000000  1
  Al3+  Al  1  0.50000000  0.00000000  0.75000000  1
  Al3+  Al  1  0.50000000  0.00000000  0.25000000  1
  Al3+  Al  1  0.00000000  0.25000000  0.50000000  1
  Al3+  Al  1  0.75000000  0.50000000  0.00000000  1
  Si4+  Si  1  0.75000000  0.00000000  0.50000000  1
  Si4+  Si  1  0.50000000  0.25000000  0.00000000  1
  Si4+  Si  1  0.00000000  0.50000000  0.75000000  1
  Si4+  Si  1  0.00000000  0.50000000  0.25000000  1
  Si4+  Si  1  0.50000000  0.75000000  0.00000000  1
  Si4+  Si  1  0.25000000  0.00000000  0.50000000  1
  Cl-  Cl  1  0.50000000  0.50000000  0.50000000  1
  Cl-  Cl  1  0.00000000  0.00000000  0.00000000  1
  O2-  O  1  0.64383300  0.90885600  0.63241300  1
  O2-  O  1  0.64383300  0.09114400  0.36758700  1
  O2-  O  1  0.90885600  0.63241300  0.64383300  1
  O2-  O  1  0.09114400  0.63241300  0.35616700  1
  O2-  O  1  0.63241300  0.64383300  0.90885600  1
  O2-  O  1  0.36758700  0.35616700  0.90885600  1
  O2-  O  1  0.85616700  0.86758700  0.40885600  1
  O2-  O  1  0.85616700  0.13241300  0.59114400  1
  O2-  O  1  0.14383300  0.86758700  0.59114400  1
  O2-  O  1  0.13241300  0.59114400  0.85616700  1
  O2-  O  1  0.59114400  0.14383300  0.86758700  1
  O2-  O  1  0.59114400  0.85616700  0.13241300  1
  O2-  O  1  0.86758700  0.40885600  0.85616700  1
  O2-  O  1  0.40885600  0.85616700  0.86758700  1
  O2-  O  1  0.14383300  0.13241300  0.40885600  1
  O2-  O  1  0.35616700  0.90885600  0.36758700  1
  O2-  O  1  0.35616700  0.09114400  0.63241300  1
  O2-  O  1  0.09114400  0.36758700  0.64383300  1
  O2-  O  1  0.90885600  0.36758700  0.35616700  1
  O2-  O  1  0.63241300  0.35616700  0.09114400  1
  O2-  O  1  0.36758700  0.64383300  0.09114400  1
  O2-  O  1  0.40885600  0.14383300  0.13241300  1
  O2-  O  1  0.13241300  0.40885600  0.14383300  1
  O2-  O  1  0.86758700  0.59114400  0.14383300  1
