# generated using pymatgen
data_LiFe(PO3)3
_symmetry_space_group_name_H-M   'P 1'
_cell_length_a   9.46531404
_cell_length_b   9.51913480
_cell_length_c   9.71013900
_cell_angle_alpha   109.24296358
_cell_angle_beta   104.84349720
_cell_angle_gamma   108.79654784
_symmetry_Int_Tables_number   1
_chemical_formula_structural   LiFe(PO3)3
_chemical_formula_sum   'Li4 Fe4 P12 O36'
_cell_volume   714.81218747
_cell_formula_units_Z   4
loop_
 _symmetry_equiv_pos_site_id
 _symmetry_equiv_pos_as_xyz
  1  'x, y, z'
loop_
 _atom_type_symbol
 _atom_type_oxidation_number
  Li+  1.0
  Fe2+  2.0
  P5+  5.0
  O2-  -2.0
loop_
 _atom_site_type_symbol
 _atom_site_label
 _atom_site_symmetry_multiplicity
 _atom_site_fract_x
 _atom_site_fract_y
 _atom_site_fract_z
 _atom_site_occupancy
  Li+  Li  1  0.65206000  0.06713800  0.49599000  1
  Li+  Li  1  0.34794000  0.93286200  0.50401000  1
  Li+  Li  1  0.35569000  0.15114500  0.32401000  1
  Li+  Li  1  0.64431000  0.84885500  0.67599000  1
  Fe2+  Fe  1  0.74902300  0.23314500  0.27338300  1
  Fe2+  Fe  1  0.10016400  0.30006700  0.21172700  1
  Fe2+  Fe  1  0.89983600  0.69993300  0.78827300  1
  Fe2+  Fe  1  0.25097700  0.76685500  0.72661700  1
  P5+  P  1  0.43008300  0.66393200  0.29478600  1
  P5+  P  1  0.05595900  0.79080100  0.16469100  1
  P5+  P  1  0.00183500  0.61220600  0.35702600  1
  P5+  P  1  0.48768300  0.85030900  0.10594100  1
  P5+  P  1  0.18889900  0.08747300  0.92191800  1
  P5+  P  1  0.51231700  0.14969100  0.89405900  1
  P5+  P  1  0.99816500  0.38779400  0.64297400  1
  P5+  P  1  0.94404100  0.20919900  0.83530900  1
  P5+  P  1  0.81110100  0.91252700  0.07808200  1
  P5+  P  1  0.30851700  0.43130400  0.59080400  1
  P5+  P  1  0.69148300  0.56869600  0.40919600  1
  P5+  P  1  0.56991700  0.33606800  0.70521400  1
  O2-  O  1  0.55370000  0.01343400  0.25249100  1
  O2-  O  1  0.90637900  0.83673000  0.16993900  1
  O2-  O  1  0.95133900  0.26981800  0.00053300  1
  O2-  O  1  0.63623400  0.81670400  0.07618200  1
  O2-  O  1  0.36376600  0.18329600  0.92381800  1
  O2-  O  1  0.04866100  0.73018200  0.99946700  1
  O2-  O  1  0.09362100  0.16327000  0.83006100  1
  O2-  O  1  0.00034100  0.36899900  0.80028600  1
  O2-  O  1  0.59759100  0.30286900  0.86048400  1
  O2-  O  1  0.36978600  0.82325000  0.95368100  1
  O2-  O  1  0.11599800  0.90267100  0.81265500  1
  O2-  O  1  0.02947100  0.56451500  0.67641300  1
  O2-  O  1  0.15035800  0.35709400  0.62597800  1
  O2-  O  1  0.42937800  0.39660300  0.71034400  1
  O2-  O  1  0.78813100  0.07209300  0.69942000  1
  O2-  O  1  0.79962500  0.85974900  0.90952800  1
  O2-  O  1  0.72397500  0.47692400  0.74203400  1
  O2-  O  1  0.50302000  0.17574900  0.55582200  1
  O2-  O  1  0.36871400  0.61484500  0.64476800  1
  O2-  O  1  0.44630000  0.98656600  0.74750900  1
  O2-  O  1  0.27152600  0.31901700  0.42056500  1
  O2-  O  1  0.40240900  0.69713100  0.13951600  1
  O2-  O  1  0.84530900  0.25007900  0.50060300  1
  O2-  O  1  0.72847400  0.68098300  0.57943500  1
  O2-  O  1  0.15469100  0.74992100  0.49939700  1
  O2-  O  1  0.63128600  0.38515500  0.35523200  1
  O2-  O  1  0.49698000  0.82425100  0.44417800  1
  O2-  O  1  0.27602500  0.52307600  0.25796600  1
  O2-  O  1  0.20037500  0.14025100  0.09047200  1
  O2-  O  1  0.21186900  0.92790700  0.30058000  1
  O2-  O  1  0.57062200  0.60339700  0.28965600  1
  O2-  O  1  0.84964200  0.64290600  0.37402200  1
  O2-  O  1  0.97052900  0.43548500  0.32358700  1
  O2-  O  1  0.88400200  0.09732900  0.18734500  1
  O2-  O  1  0.63021400  0.17675000  0.04631900  1
  O2-  O  1  0.99965900  0.63100100  0.19971400  1
