# generated using pymatgen
data_Li2CrP2O7
_symmetry_space_group_name_H-M   'P 1'
_cell_length_a   15.33718287
_cell_length_b   4.93167028
_cell_length_c   8.76182724
_cell_angle_alpha   90.00000000
_cell_angle_beta   115.01423437
_cell_angle_gamma   90.00000000
_symmetry_Int_Tables_number   1
_chemical_formula_structural   Li2CrP2O7
_chemical_formula_sum   'Li8 Cr4 P8 O28'
_cell_volume   600.56455627
_cell_formula_units_Z   4
loop_
 _symmetry_equiv_pos_site_id
 _symmetry_equiv_pos_as_xyz
  1  'x, y, z'
loop_
 _atom_type_symbol
 _atom_type_oxidation_number
  Li+  1.0
  Cr2+  2.0
  P5+  5.0
  O2-  -2.0
loop_
 _atom_site_type_symbol
 _atom_site_label
 _atom_site_symmetry_multiplicity
 _atom_site_fract_x
 _atom_site_fract_y
 _atom_site_fract_z
 _atom_site_occupancy
  Li+  Li  1  0.30999957  0.85659686  0.44771022  1
  Li+  Li  1  0.19000043  0.64340314  0.55228978  1
  Li+  Li  1  0.19000043  0.35659686  0.05228978  1
  Li+  Li  1  0.30999957  0.14340314  0.94771022  1
  Li+  Li  1  0.80999957  0.35659686  0.44771022  1
  Li+  Li  1  0.69000043  0.14340314  0.55228978  1
  Li+  Li  1  0.69000043  0.85659686  0.05228978  1
  Li+  Li  1  0.80999957  0.64340314  0.94771022  1
  Cr2+  Cr  1  0.00000000  0.50000000  0.00000000  1
  Cr2+  Cr  1  0.00000000  0.50000000  0.50000000  1
  Cr2+  Cr  1  0.50000000  0.00000000  0.00000000  1
  Cr2+  Cr  1  0.50000000  0.00000000  0.50000000  1
  P5+  P  1  0.39705042  0.36836428  0.68530328  1
  P5+  P  1  0.10294958  0.13163572  0.31469672  1
  P5+  P  1  0.39705042  0.63163572  0.18530328  1
  P5+  P  1  0.10294958  0.86836428  0.81469672  1
  P5+  P  1  0.89705042  0.86836428  0.68530328  1
  P5+  P  1  0.60294958  0.63163572  0.31469672  1
  P5+  P  1  0.89705042  0.13163572  0.18530328  1
  P5+  P  1  0.60294958  0.36836428  0.81469672  1
  O2-  O  1  0.39866114  0.84546150  0.06062459  1
  O2-  O  1  0.17856503  0.07953789  0.88981164  1
  O2-  O  1  0.32143497  0.42046211  0.11018836  1
  O2-  O  1  0.32143497  0.57953789  0.61018836  1
  O2-  O  1  0.00000000  0.97678244  0.25000000  1
  O2-  O  1  0.39457648  0.76438037  0.34081755  1
  O2-  O  1  0.10133886  0.65453850  0.93937541  1
  O2-  O  1  0.39457648  0.23561963  0.84081755  1
  O2-  O  1  0.17856503  0.92046211  0.38981164  1
  O2-  O  1  0.00000000  0.02321756  0.75000000  1
  O2-  O  1  0.10542352  0.26438037  0.15918245  1
  O2-  O  1  0.10133886  0.34546150  0.43937541  1
  O2-  O  1  0.10542352  0.73561963  0.65918245  1
  O2-  O  1  0.39866114  0.15453850  0.56062459  1
  O2-  O  1  0.89866114  0.34546150  0.06062459  1
  O2-  O  1  0.67856504  0.57953789  0.88981164  1
  O2-  O  1  0.82143496  0.92046211  0.11018836  1
  O2-  O  1  0.82143496  0.07953789  0.61018836  1
  O2-  O  1  0.50000000  0.47678244  0.25000000  1
  O2-  O  1  0.89457648  0.26438037  0.34081755  1
  O2-  O  1  0.60133886  0.15453850  0.93937541  1
  O2-  O  1  0.89457648  0.73561963  0.84081755  1
  O2-  O  1  0.67856504  0.42046211  0.38981164  1
  O2-  O  1  0.50000000  0.52321756  0.75000000  1
  O2-  O  1  0.60542352  0.76438037  0.15918245  1
  O2-  O  1  0.60133886  0.84546150  0.43937541  1
  O2-  O  1  0.60542352  0.23561963  0.65918245  1
  O2-  O  1  0.89866114  0.65453850  0.56062459  1
