# generated using pymatgen
data_Li2TeO3
_symmetry_space_group_name_H-M   'P 1'
_cell_length_a   5.04886151
_cell_length_b   9.48232606
_cell_length_c   13.56821269
_cell_angle_alpha   90.00000000
_cell_angle_beta   95.60513560
_cell_angle_gamma   90.00000000
_symmetry_Int_Tables_number   1
_chemical_formula_structural   Li2TeO3
_chemical_formula_sum   'Li16 Te8 O24'
_cell_volume   646.47166139
_cell_formula_units_Z   8
loop_
 _symmetry_equiv_pos_site_id
 _symmetry_equiv_pos_as_xyz
  1  'x, y, z'
loop_
 _atom_type_symbol
 _atom_type_oxidation_number
  Li+  1.0
  Te4+  4.0
  O2-  -2.0
loop_
 _atom_site_type_symbol
 _atom_site_label
 _atom_site_symmetry_multiplicity
 _atom_site_fract_x
 _atom_site_fract_y
 _atom_site_fract_z
 _atom_site_occupancy
  Li+  Li  1  0.20422683  0.75065755  0.31855276  1
  Li+  Li  1  0.79577317  0.75065755  0.18144724  1
  Li+  Li  1  0.29577317  0.74934245  0.68144724  1
  Li+  Li  1  0.70422684  0.74934245  0.81855276  1
  Li+  Li  1  0.79417028  0.93414010  0.68486229  1
  Li+  Li  1  0.20582972  0.93414010  0.81513771  1
  Li+  Li  1  0.70582972  0.56585990  0.31513771  1
  Li+  Li  1  0.29417028  0.56585990  0.18486229  1
  Li+  Li  1  0.70422684  0.25065755  0.31855276  1
  Li+  Li  1  0.29577317  0.25065755  0.18144724  1
  Li+  Li  1  0.79577316  0.24934245  0.68144724  1
  Li+  Li  1  0.20422684  0.24934245  0.81855276  1
  Li+  Li  1  0.29417028  0.43414010  0.68486229  1
  Li+  Li  1  0.70582972  0.43414010  0.81513771  1
  Li+  Li  1  0.20582972  0.06585990  0.31513771  1
  Li+  Li  1  0.79417028  0.06585990  0.18486229  1
  Te4+  Te  1  0.73996761  0.90700238  0.41089252  1
  Te4+  Te  1  0.26003239  0.90700238  0.08910748  1
  Te4+  Te  1  0.76003239  0.59299762  0.58910748  1
  Te4+  Te  1  0.23996761  0.59299762  0.91089252  1
  Te4+  Te  1  0.23996761  0.40700238  0.41089252  1
  Te4+  Te  1  0.76003239  0.40700238  0.08910748  1
  Te4+  Te  1  0.26003239  0.09299762  0.58910748  1
  Te4+  Te  1  0.73996761  0.09299762  0.91089252  1
  O2-  O  1  0.37022430  0.90955873  0.38795577  1
  O2-  O  1  0.82318819  0.94261294  0.83087744  1
  O2-  O  1  0.67681181  0.55738706  0.16912256  1
  O2-  O  1  0.32318819  0.55738706  0.33087744  1
  O2-  O  1  0.31948500  0.74078172  0.82770385  1
  O2-  O  1  0.68051500  0.74078172  0.67229615  1
  O2-  O  1  0.18051500  0.75921828  0.17229615  1
  O2-  O  1  0.81948500  0.75921828  0.32770385  1
  O2-  O  1  0.12977570  0.59044127  0.61204423  1
  O2-  O  1  0.87022430  0.59044127  0.88795577  1
  O2-  O  1  0.17681181  0.94261294  0.66912256  1
  O2-  O  1  0.62977570  0.90955873  0.11204423  1
  O2-  O  1  0.87022430  0.40955873  0.38795577  1
  O2-  O  1  0.32318819  0.44261294  0.83087744  1
  O2-  O  1  0.17681181  0.05738706  0.16912256  1
  O2-  O  1  0.82318819  0.05738706  0.33087744  1
  O2-  O  1  0.81948500  0.24078172  0.82770385  1
  O2-  O  1  0.18051500  0.24078172  0.67229615  1
  O2-  O  1  0.68051500  0.25921828  0.17229615  1
  O2-  O  1  0.31948500  0.25921828  0.32770385  1
  O2-  O  1  0.62977570  0.09044127  0.61204423  1
  O2-  O  1  0.37022430  0.09044127  0.88795577  1
  O2-  O  1  0.67681181  0.44261294  0.66912256  1
  O2-  O  1  0.12977570  0.40955873  0.11204423  1
