# generated using pymatgen
data_Li2Te2O5
_symmetry_space_group_name_H-M   'P 1'
_cell_length_a   10.35085939
_cell_length_b   4.72723192
_cell_length_c   12.09778119
_cell_angle_alpha   90.00000000
_cell_angle_beta   122.58874673
_cell_angle_gamma   90.00000000
_symmetry_Int_Tables_number   1
_chemical_formula_structural   Li2Te2O5
_chemical_formula_sum   'Li8 Te8 O20'
_cell_volume   498.75694126
_cell_formula_units_Z   4
loop_
 _symmetry_equiv_pos_site_id
 _symmetry_equiv_pos_as_xyz
  1  'x, y, z'
loop_
 _atom_type_symbol
 _atom_type_oxidation_number
  Li+  1.0
  Te4+  4.0
  O2-  -2.0
loop_
 _atom_site_type_symbol
 _atom_site_label
 _atom_site_symmetry_multiplicity
 _atom_site_fract_x
 _atom_site_fract_y
 _atom_site_fract_z
 _atom_site_occupancy
  Li+  Li  1  0.92359386  0.81157829  0.17514945  1
  Li+  Li  1  0.07640614  0.31157829  0.32485055  1
  Li+  Li  1  0.07640614  0.18842171  0.82485055  1
  Li+  Li  1  0.92359386  0.68842171  0.67514945  1
  Li+  Li  1  0.07470781  0.70976164  0.48947663  1
  Li+  Li  1  0.92529219  0.20976164  0.01052337  1
  Li+  Li  1  0.92529219  0.29023836  0.51052337  1
  Li+  Li  1  0.07470781  0.79023836  0.98947663  1
  Te4+  Te  1  0.30261781  0.81801436  0.37500522  1
  Te4+  Te  1  0.69738219  0.31801436  0.12499478  1
  Te4+  Te  1  0.69738219  0.18198564  0.62499478  1
  Te4+  Te  1  0.30261781  0.68198564  0.87500522  1
  Te4+  Te  1  0.69756945  0.81311613  0.34978118  1
  Te4+  Te  1  0.30243055  0.31311613  0.15021882  1
  Te4+  Te  1  0.30243055  0.18688387  0.65021882  1
  Te4+  Te  1  0.69756945  0.68688387  0.84978118  1
  O2-  O  1  0.62224842  0.99127223  0.45534589  1
  O2-  O  1  0.37775158  0.49127223  0.04465411  1
  O2-  O  1  0.37775158  0.00872777  0.54465411  1
  O2-  O  1  0.62224842  0.50872777  0.95534589  1
  O2-  O  1  0.76453420  0.82773951  0.71134316  1
  O2-  O  1  0.23546580  0.32773951  0.78865684  1
  O2-  O  1  0.23546580  0.17226049  0.28865684  1
  O2-  O  1  0.76453420  0.67226049  0.21134316  1
  O2-  O  1  0.11025690  0.77461919  0.84241075  1
  O2-  O  1  0.88974310  0.27461919  0.65758925  1
  O2-  O  1  0.88974310  0.22538081  0.15758925  1
  O2-  O  1  0.11025690  0.72538081  0.34241075  1
  O2-  O  1  0.23876472  0.67230172  0.17050223  1
  O2-  O  1  0.76123528  0.17230172  0.32949777  1
  O2-  O  1  0.76123528  0.32769828  0.82949777  1
  O2-  O  1  0.23876472  0.82769828  0.67050223  1
  O2-  O  1  0.88794030  0.71285361  0.49375601  1
  O2-  O  1  0.11205970  0.21285361  0.00624399  1
  O2-  O  1  0.11205970  0.28714639  0.50624399  1
  O2-  O  1  0.88794030  0.78714639  0.99375601  1
