# generated using pymatgen
data_LiPO3
_symmetry_space_group_name_H-M   'P 1'
_cell_length_a   5.30601022
_cell_length_b   16.90987642
_cell_length_c   8.78602576
_cell_angle_alpha   90.00000000
_cell_angle_beta   116.89691573
_cell_angle_gamma   90.00000000
_symmetry_Int_Tables_number   1
_chemical_formula_structural   LiPO3
_chemical_formula_sum   'Li12 P12 O36'
_cell_volume   703.03850661
_cell_formula_units_Z   12
loop_
 _symmetry_equiv_pos_site_id
 _symmetry_equiv_pos_as_xyz
  1  'x, y, z'
loop_
 _atom_type_symbol
 _atom_type_oxidation_number
  Li+  1.0
  P5+  5.0
  O2-  -2.0
loop_
 _atom_site_type_symbol
 _atom_site_label
 _atom_site_symmetry_multiplicity
 _atom_site_fract_x
 _atom_site_fract_y
 _atom_site_fract_z
 _atom_site_occupancy
  Li+  Li  1  0.91007718  0.19065733  0.72350973  1
  Li+  Li  1  0.08992282  0.69065733  0.77649027  1
  Li+  Li  1  0.08992282  0.80934267  0.27649027  1
  Li+  Li  1  0.91007718  0.30934267  0.22350973  1
  Li+  Li  1  0.07347907  0.02044640  0.87154954  1
  Li+  Li  1  0.92652093  0.52044640  0.62845046  1
  Li+  Li  1  0.92652093  0.97955360  0.12845046  1
  Li+  Li  1  0.07347907  0.47955360  0.37154954  1
  Li+  Li  1  0.17288811  0.84364233  0.93848944  1
  Li+  Li  1  0.82711189  0.34364233  0.56151056  1
  Li+  Li  1  0.82711189  0.15635767  0.06151056  1
  Li+  Li  1  0.17288811  0.65635767  0.43848944  1
  P5+  P  1  0.61068207  0.90034224  0.30649808  1
  P5+  P  1  0.38931793  0.40034224  0.19350192  1
  P5+  P  1  0.38931793  0.09965776  0.69350192  1
  P5+  P  1  0.61068207  0.59965776  0.80649808  1
  P5+  P  1  0.50440372  0.56352920  0.28070061  1
  P5+  P  1  0.49559628  0.06352920  0.21929939  1
  P5+  P  1  0.49559628  0.43647080  0.71929939  1
  P5+  P  1  0.50440372  0.93647080  0.78070061  1
  P5+  P  1  0.61227491  0.69106011  0.09194420  1
  P5+  P  1  0.38772509  0.19106011  0.40805580  1
  P5+  P  1  0.38772509  0.30893989  0.90805580  1
  P5+  P  1  0.61227491  0.80893989  0.59194420  1
  O2-  O  1  0.30686485  0.56666057  0.35741710  1
  O2-  O  1  0.69313515  0.06666057  0.14258290  1
  O2-  O  1  0.69313515  0.43333943  0.64258290  1
  O2-  O  1  0.30686485  0.93333943  0.85741710  1
  O2-  O  1  0.67410073  0.13273749  0.80573606  1
  O2-  O  1  0.32589927  0.63273749  0.69426394  1
  O2-  O  1  0.32589927  0.86726251  0.19426394  1
  O2-  O  1  0.67410073  0.36726251  0.30573606  1
  O2-  O  1  0.16196508  0.39630362  0.24754092  1
  O2-  O  1  0.83803492  0.89630362  0.25245908  1
  O2-  O  1  0.83803492  0.60369638  0.75245908  1
  O2-  O  1  0.16196508  0.10369638  0.74754092  1
  O2-  O  1  0.57584902  0.50935141  0.84844077  1
  O2-  O  1  0.42415098  0.00935141  0.65155923  1
  O2-  O  1  0.42415098  0.49064859  0.15155923  1
  O2-  O  1  0.57584902  0.99064859  0.34844077  1
  O2-  O  1  0.43030905  0.86663511  0.64782352  1
  O2-  O  1  0.56969095  0.36663511  0.85217648  1
  O2-  O  1  0.56969095  0.13336489  0.35217648  1
  O2-  O  1  0.43030905  0.63336489  0.14782352  1
  O2-  O  1  0.40486152  0.75365005  0.46836719  1
  O2-  O  1  0.59513848  0.25365005  0.03163281  1
  O2-  O  1  0.59513848  0.24634995  0.53163281  1
  O2-  O  1  0.40486152  0.74634995  0.96836719  1
  O2-  O  1  0.81369778  0.94001819  0.89653663  1
  O2-  O  1  0.18630222  0.44001819  0.60346337  1
  O2-  O  1  0.18630222  0.05998181  0.10346337  1
  O2-  O  1  0.81369778  0.55998181  0.39653663  1
  O2-  O  1  0.13639669  0.21872748  0.25483824  1
  O2-  O  1  0.86360331  0.71872748  0.24516176  1
  O2-  O  1  0.86360331  0.78127252  0.74516176  1
  O2-  O  1  0.13639669  0.28127252  0.75483824  1
  O2-  O  1  0.73125987  0.63365960  0.99463084  1
  O2-  O  1  0.26874013  0.13365960  0.50536916  1
  O2-  O  1  0.26874013  0.36634040  0.00536916  1
  O2-  O  1  0.73125987  0.86634040  0.49463084  1
