# generated using pymatgen
data_Li3AlH6
_symmetry_space_group_name_H-M   'P 1'
_cell_length_a   7.95585543
_cell_length_b   7.95585543
_cell_length_c   9.38910570
_cell_angle_alpha   90.00000000
_cell_angle_beta   90.00000000
_cell_angle_gamma   120.00000000
_symmetry_Int_Tables_number   1
_chemical_formula_structural   Li3AlH6
_chemical_formula_sum   'Li18 Al6 H36'
_cell_volume   514.66972855
_cell_formula_units_Z   6
loop_
 _symmetry_equiv_pos_site_id
 _symmetry_equiv_pos_as_xyz
  1  'x, y, z'
loop_
 _atom_type_symbol
 _atom_type_oxidation_number
  Li+  1.0
  Al3+  3.0
  H-  -1.0
loop_
 _atom_site_type_symbol
 _atom_site_label
 _atom_site_symmetry_multiplicity
 _atom_site_fract_x
 _atom_site_fract_y
 _atom_site_fract_z
 _atom_site_occupancy
  Li+  Li  1  0.29014822  0.39830466  0.45925642  1
  Li+  Li  1  0.60169534  0.89184357  0.45925642  1
  Li+  Li  1  0.70985178  0.60169534  0.54074358  1
  Li+  Li  1  0.39830466  0.10815643  0.54074358  1
  Li+  Li  1  0.10815643  0.70985178  0.45925642  1
  Li+  Li  1  0.89184357  0.29014822  0.54074358  1
  Li+  Li  1  0.95681489  0.73163799  0.79258975  1
  Li+  Li  1  0.26836201  0.22517690  0.79258975  1
  Li+  Li  1  0.37651844  0.93502868  0.87407692  1
  Li+  Li  1  0.06497132  0.44148977  0.87407692  1
  Li+  Li  1  0.77482310  0.04318511  0.79258975  1
  Li+  Li  1  0.55851023  0.62348156  0.87407692  1
  Li+  Li  1  0.62348156  0.06497132  0.12592308  1
  Li+  Li  1  0.93502868  0.55851023  0.12592308  1
  Li+  Li  1  0.04318511  0.26836201  0.20741025  1
  Li+  Li  1  0.73163799  0.77482310  0.20741025  1
  Li+  Li  1  0.44148977  0.37651844  0.12592308  1
  Li+  Li  1  0.22517690  0.95681489  0.20741025  1
  Al3+  Al  1  0.00000000  0.00000000  0.50000000  1
  Al3+  Al  1  0.00000000  0.00000000  0.00000000  1
  Al3+  Al  1  0.66666667  0.33333333  0.83333333  1
  Al3+  Al  1  0.66666667  0.33333333  0.33333333  1
  Al3+  Al  1  0.33333333  0.66666667  0.16666667  1
  Al3+  Al  1  0.33333333  0.66666667  0.66666667  1
  H-  H  1  0.64370834  0.15021330  0.44523231  1
  H-  H  1  0.35629166  0.84978670  0.55476769  1
  H-  H  1  0.80469227  0.83098744  0.40039543  1
  H-  H  1  0.16901256  0.97370484  0.40039543  1
  H-  H  1  0.02629516  0.19530773  0.40039543  1
  H-  H  1  0.19530773  0.16901256  0.59960457  1
  H-  H  1  0.83098744  0.02629516  0.59960457  1
  H-  H  1  0.97370484  0.80469227  0.59960457  1
  H-  H  1  0.15021330  0.50650496  0.55476769  1
  H-  H  1  0.50650496  0.35629166  0.44523231  1
  H-  H  1  0.84978670  0.49349504  0.44523231  1
  H-  H  1  0.49349504  0.64370834  0.55476769  1
  H-  H  1  0.31037501  0.48354663  0.77856564  1
  H-  H  1  0.02295833  0.18312003  0.88810102  1
  H-  H  1  0.47135894  0.16432077  0.73372876  1
  H-  H  1  0.83567923  0.30703817  0.73372876  1
  H-  H  1  0.69296183  0.52864106  0.73372876  1
  H-  H  1  0.86197439  0.50234590  0.93293791  1
  H-  H  1  0.49765410  0.35962850  0.93293791  1
  H-  H  1  0.64037150  0.13802561  0.93293791  1
  H-  H  1  0.81687997  0.83983829  0.88810102  1
  H-  H  1  0.17317163  0.68962499  0.77856564  1
  H-  H  1  0.51645337  0.82682837  0.77856564  1
  H-  H  1  0.16016171  0.97704167  0.88810102  1
  H-  H  1  0.97704167  0.81687997  0.11189898  1
  H-  H  1  0.68962499  0.51645337  0.22143436  1
  H-  H  1  0.13802561  0.49765410  0.06706209  1
  H-  H  1  0.50234590  0.64037150  0.06706209  1
  H-  H  1  0.35962850  0.86197439  0.06706209  1
  H-  H  1  0.52864106  0.83567923  0.26627124  1
  H-  H  1  0.16432077  0.69296183  0.26627124  1
  H-  H  1  0.30703817  0.47135894  0.26627124  1
  H-  H  1  0.48354663  0.17317163  0.22143436  1
  H-  H  1  0.83983829  0.02295833  0.11189898  1
  H-  H  1  0.18312003  0.16016171  0.11189898  1
  H-  H  1  0.82682837  0.31037501  0.22143436  1
