# generated using pymatgen
data_Li3NbO4
_symmetry_space_group_name_H-M   'P 1'
_cell_length_a   8.41659877
_cell_length_b   8.41659877
_cell_length_c   8.41659877
_cell_angle_alpha   90.00000000
_cell_angle_beta   90.00000000
_cell_angle_gamma   90.00000000
_symmetry_Int_Tables_number   1
_chemical_formula_structural   Li3NbO4
_chemical_formula_sum   'Li24 Nb8 O32'
_cell_volume   596.22457461
_cell_formula_units_Z   8
loop_
 _symmetry_equiv_pos_site_id
 _symmetry_equiv_pos_as_xyz
  1  'x, y, z'
loop_
 _atom_type_symbol
 _atom_type_oxidation_number
  Li+  1.0
  Nb5+  5.0
  O2-  -2.0
loop_
 _atom_site_type_symbol
 _atom_site_label
 _atom_site_symmetry_multiplicity
 _atom_site_fract_x
 _atom_site_fract_y
 _atom_site_fract_z
 _atom_site_occupancy
  Li+  Li  1  0.62022780  0.10766265  0.62022780  1
  Li+  Li  1  0.12022780  0.39233735  0.87977220  1
  Li+  Li  1  0.37977220  0.89233735  0.62022780  1
  Li+  Li  1  0.60766265  0.87977220  0.87977220  1
  Li+  Li  1  0.37977220  0.10766265  0.37977220  1
  Li+  Li  1  0.10766265  0.62022780  0.62022780  1
  Li+  Li  1  0.12022780  0.87977220  0.39233735  1
  Li+  Li  1  0.89233735  0.37977220  0.62022780  1
  Li+  Li  1  0.12022780  0.12022780  0.60766265  1
  Li+  Li  1  0.89233735  0.62022780  0.37977220  1
  Li+  Li  1  0.37977220  0.62022780  0.89233735  1
  Li+  Li  1  0.87977220  0.87977220  0.60766265  1
  Li+  Li  1  0.12022780  0.60766265  0.12022780  1
  Li+  Li  1  0.62022780  0.89233735  0.37977220  1
  Li+  Li  1  0.87977220  0.39233735  0.12022780  1
  Li+  Li  1  0.10766265  0.37977220  0.37977220  1
  Li+  Li  1  0.87977220  0.60766265  0.87977220  1
  Li+  Li  1  0.60766265  0.12022780  0.12022780  1
  Li+  Li  1  0.62022780  0.37977220  0.89233735  1
  Li+  Li  1  0.39233735  0.87977220  0.12022780  1
  Li+  Li  1  0.62022780  0.62022780  0.10766265  1
  Li+  Li  1  0.39233735  0.12022780  0.87977220  1
  Li+  Li  1  0.87977220  0.12022780  0.39233735  1
  Li+  Li  1  0.37977220  0.37977220  0.10766265  1
  Nb5+  Nb  1  0.85858304  0.85858304  0.14141696  1
  Nb5+  Nb  1  0.35858304  0.64141696  0.35858304  1
  Nb5+  Nb  1  0.14141696  0.85858304  0.85858304  1
  Nb5+  Nb  1  0.14141696  0.14141696  0.14141696  1
  Nb5+  Nb  1  0.35858304  0.35858304  0.64141696  1
  Nb5+  Nb  1  0.85858304  0.14141696  0.85858304  1
  Nb5+  Nb  1  0.64141696  0.35858304  0.35858304  1
  Nb5+  Nb  1  0.64141696  0.64141696  0.64141696  1
  O2-  O  1  0.62346700  0.86533494  0.62346700  1
  O2-  O  1  0.37653300  0.37653300  0.86533494  1
  O2-  O  1  0.37653300  0.62346700  0.13466506  1
  O2-  O  1  0.12346700  0.87653300  0.63466506  1
  O2-  O  1  0.88547843  0.88547843  0.88547843  1
  O2-  O  1  0.38547843  0.61452157  0.61452157  1
  O2-  O  1  0.11452157  0.88547843  0.11452157  1
  O2-  O  1  0.61452157  0.61452157  0.38547843  1
  O2-  O  1  0.62346700  0.62346700  0.86533494  1
  O2-  O  1  0.12346700  0.63466506  0.87653300  1
  O2-  O  1  0.63466506  0.12346700  0.87653300  1
  O2-  O  1  0.87653300  0.36533494  0.87653300  1
  O2-  O  1  0.63466506  0.87653300  0.12346700  1
  O2-  O  1  0.37653300  0.13466506  0.62346700  1
  O2-  O  1  0.36533494  0.87653300  0.87653300  1
  O2-  O  1  0.86533494  0.62346700  0.62346700  1
  O2-  O  1  0.12346700  0.36533494  0.12346700  1
  O2-  O  1  0.87653300  0.87653300  0.36533494  1
  O2-  O  1  0.87653300  0.12346700  0.63466506  1
  O2-  O  1  0.62346700  0.37653300  0.13466506  1
  O2-  O  1  0.38547843  0.38547843  0.38547843  1
  O2-  O  1  0.88547843  0.11452157  0.11452157  1
  O2-  O  1  0.61452157  0.38547843  0.61452157  1
  O2-  O  1  0.11452157  0.11452157  0.88547843  1
  O2-  O  1  0.12346700  0.12346700  0.36533494  1
  O2-  O  1  0.62346700  0.13466506  0.37653300  1
  O2-  O  1  0.13466506  0.62346700  0.37653300  1
  O2-  O  1  0.37653300  0.86533494  0.37653300  1
  O2-  O  1  0.13466506  0.37653300  0.62346700  1
  O2-  O  1  0.87653300  0.63466506  0.12346700  1
  O2-  O  1  0.86533494  0.37653300  0.37653300  1
  O2-  O  1  0.36533494  0.12346700  0.12346700  1
