# generated using pymatgen
data_Li3TaO4
_symmetry_space_group_name_H-M   'P 1'
_cell_length_a   8.46830456
_cell_length_b   8.47386328
_cell_length_c   9.27650154
_cell_angle_alpha   90.00000000
_cell_angle_beta   117.09011803
_cell_angle_gamma   90.00000000
_symmetry_Int_Tables_number   1
_chemical_formula_structural   Li3TaO4
_chemical_formula_sum   'Li24 Ta8 O32'
_cell_volume   592.64455891
_cell_formula_units_Z   8
loop_
 _symmetry_equiv_pos_site_id
 _symmetry_equiv_pos_as_xyz
  1  'x, y, z'
loop_
 _atom_type_symbol
 _atom_type_oxidation_number
  Li+  1.0
  Ta5+  5.0
  O2-  -2.0
loop_
 _atom_site_type_symbol
 _atom_site_label
 _atom_site_symmetry_multiplicity
 _atom_site_fract_x
 _atom_site_fract_y
 _atom_site_fract_z
 _atom_site_occupancy
  Li+  Li  1  0.18033591  0.87616592  0.36289066  1
  Li+  Li  1  0.81966409  0.12383408  0.63710934  1
  Li+  Li  1  0.18033591  0.12383408  0.86289066  1
  Li+  Li  1  0.81966409  0.87616592  0.13710934  1
  Li+  Li  1  0.31419741  0.88173367  0.11395948  1
  Li+  Li  1  0.68580259  0.88173367  0.38604052  1
  Li+  Li  1  0.68580259  0.11826633  0.88604052  1
  Li+  Li  1  0.31419741  0.11826633  0.61395948  1
  Li+  Li  1  0.54092492  0.89576850  0.62456238  1
  Li+  Li  1  0.45907508  0.89576850  0.87543762  1
  Li+  Li  1  0.45907508  0.10423150  0.37543762  1
  Li+  Li  1  0.54092492  0.10423150  0.12456238  1
  Li+  Li  1  0.68033591  0.37616592  0.36289066  1
  Li+  Li  1  0.31966409  0.62383408  0.63710934  1
  Li+  Li  1  0.68033591  0.62383408  0.86289066  1
  Li+  Li  1  0.31966409  0.37616592  0.13710934  1
  Li+  Li  1  0.81419741  0.38173367  0.11395948  1
  Li+  Li  1  0.18580259  0.38173367  0.38604052  1
  Li+  Li  1  0.18580259  0.61826633  0.88604052  1
  Li+  Li  1  0.81419741  0.61826633  0.61395948  1
  Li+  Li  1  0.04092492  0.39576850  0.62456238  1
  Li+  Li  1  0.95907508  0.39576850  0.87543762  1
  Li+  Li  1  0.95907508  0.60423150  0.37543762  1
  Li+  Li  1  0.04092492  0.60423150  0.12456238  1
  Ta5+  Ta  1  0.58003786  0.64175724  0.12507106  1
  Ta5+  Ta  1  0.41996214  0.64175724  0.37492894  1
  Ta5+  Ta  1  0.41996214  0.35824276  0.87492894  1
  Ta5+  Ta  1  0.58003786  0.35824276  0.62507106  1
  Ta5+  Ta  1  0.08003786  0.14175724  0.12507106  1
  Ta5+  Ta  1  0.91996214  0.14175724  0.37492894  1
  Ta5+  Ta  1  0.91996214  0.85824276  0.87492894  1
  Ta5+  Ta  1  0.08003786  0.85824276  0.62507106  1
  O2-  O  1  0.44198294  0.38968044  0.38688481  1
  O2-  O  1  0.44198294  0.61031956  0.88688481  1
  O2-  O  1  0.55801706  0.38968044  0.11311519  1
  O2-  O  1  0.55801706  0.61031956  0.61311519  1
  O2-  O  1  0.16651742  0.87606204  0.86322045  1
  O2-  O  1  0.83348258  0.87606204  0.63677955  1
  O2-  O  1  0.83348258  0.12393796  0.13677955  1
  O2-  O  1  0.16651742  0.12393796  0.36322045  1
  O2-  O  1  0.43880693  0.86389026  0.38133580  1
  O2-  O  1  0.56119307  0.86389026  0.11866420  1
  O2-  O  1  0.56119307  0.13610974  0.61866420  1
  O2-  O  1  0.43880693  0.13610974  0.88133580  1
  O2-  O  1  0.69463036  0.87464773  0.86813073  1
  O2-  O  1  0.30536964  0.87464773  0.63186927  1
  O2-  O  1  0.30536964  0.12535227  0.13186927  1
  O2-  O  1  0.69463036  0.12535227  0.36813073  1
  O2-  O  1  0.94198294  0.88968044  0.38688481  1
  O2-  O  1  0.94198294  0.11031956  0.88688481  1
  O2-  O  1  0.05801706  0.88968044  0.11311519  1
  O2-  O  1  0.05801706  0.11031956  0.61311519  1
  O2-  O  1  0.66651741  0.37606204  0.86322045  1
  O2-  O  1  0.33348258  0.37606204  0.63677955  1
  O2-  O  1  0.33348258  0.62393797  0.13677955  1
  O2-  O  1  0.66651741  0.62393797  0.36322045  1
  O2-  O  1  0.93880693  0.36389026  0.38133580  1
  O2-  O  1  0.06119307  0.36389026  0.11866420  1
  O2-  O  1  0.06119307  0.63610974  0.61866420  1
  O2-  O  1  0.93880693  0.63610974  0.88133580  1
  O2-  O  1  0.19463036  0.37464773  0.86813073  1
  O2-  O  1  0.80536964  0.37464773  0.63186927  1
  O2-  O  1  0.80536964  0.62535227  0.13186927  1
  O2-  O  1  0.19463036  0.62535227  0.36813073  1
