# generated using pymatgen
data_Li2SnO3
_symmetry_space_group_name_H-M   'P 1'
_cell_length_a   5.28316759
_cell_length_b   9.17874956
_cell_length_c   9.96589067
_cell_angle_alpha   90.00000000
_cell_angle_beta   100.39292961
_cell_angle_gamma   90.00000000
_symmetry_Int_Tables_number   1
_chemical_formula_structural   Li2SnO3
_chemical_formula_sum   'Li16 Sn8 O24'
_cell_volume   475.34593243
_cell_formula_units_Z   8
loop_
 _symmetry_equiv_pos_site_id
 _symmetry_equiv_pos_as_xyz
  1  'x, y, z'
loop_
 _atom_type_symbol
 _atom_type_oxidation_number
  Li+  1.0
  Sn4+  4.0
  O2-  -2.0
loop_
 _atom_site_type_symbol
 _atom_site_label
 _atom_site_symmetry_multiplicity
 _atom_site_fract_x
 _atom_site_fract_y
 _atom_site_fract_z
 _atom_site_occupancy
  Li+  Li  1  0.73722067  0.57835231  0.99894399  1
  Li+  Li  1  0.26277933  0.57835231  0.50105601  1
  Li+  Li  1  0.76277933  0.92164769  0.00105601  1
  Li+  Li  1  0.23722067  0.92164769  0.49894399  1
  Li+  Li  1  0.75000000  0.75000000  0.50000000  1
  Li+  Li  1  0.25000000  0.75000000  0.00000000  1
  Li+  Li  1  0.50000000  0.58489551  0.25000000  1
  Li+  Li  1  0.00000000  0.91510449  0.75000000  1
  Li+  Li  1  0.23722067  0.07835231  0.99894399  1
  Li+  Li  1  0.76277933  0.07835231  0.50105601  1
  Li+  Li  1  0.26277933  0.42164769  0.00105601  1
  Li+  Li  1  0.73722067  0.42164769  0.49894399  1
  Li+  Li  1  0.25000000  0.25000000  0.50000000  1
  Li+  Li  1  0.75000000  0.25000000  0.00000000  1
  Li+  Li  1  0.00000000  0.08489551  0.25000000  1
  Li+  Li  1  0.50000000  0.41510449  0.75000000  1
  Sn4+  Sn  1  0.00000000  0.58283448  0.75000000  1
  Sn4+  Sn  1  0.50000000  0.75023071  0.75000000  1
  Sn4+  Sn  1  0.00000000  0.74976929  0.25000000  1
  Sn4+  Sn  1  0.50000000  0.91716552  0.25000000  1
  Sn4+  Sn  1  0.50000000  0.08283448  0.75000000  1
  Sn4+  Sn  1  0.00000000  0.25023071  0.75000000  1
  Sn4+  Sn  1  0.50000000  0.24976929  0.25000000  1
  Sn4+  Sn  1  0.00000000  0.41716552  0.25000000  1
  O2-  O  1  0.63399751  0.59207475  0.62998234  1
  O2-  O  1  0.63535074  0.75922676  0.13240397  1
  O2-  O  1  0.36600249  0.59207475  0.87001766  1
  O2-  O  1  0.86600249  0.90792525  0.37001766  1
  O2-  O  1  0.11100888  0.58320870  0.13242605  1
  O2-  O  1  0.36464926  0.75922676  0.36759603  1
  O2-  O  1  0.86464926  0.74077324  0.86759603  1
  O2-  O  1  0.13535074  0.74077324  0.63240397  1
  O2-  O  1  0.61100888  0.91679130  0.63242605  1
  O2-  O  1  0.88899112  0.58320870  0.36757395  1
  O2-  O  1  0.38899112  0.91679130  0.86757395  1
  O2-  O  1  0.13399751  0.90792525  0.12998234  1
  O2-  O  1  0.13399751  0.09207475  0.62998234  1
  O2-  O  1  0.13535074  0.25922676  0.13240397  1
  O2-  O  1  0.86600249  0.09207475  0.87001766  1
  O2-  O  1  0.36600249  0.40792525  0.37001766  1
  O2-  O  1  0.61100888  0.08320870  0.13242605  1
  O2-  O  1  0.86464926  0.25922676  0.36759603  1
  O2-  O  1  0.36464926  0.24077324  0.86759603  1
  O2-  O  1  0.63535074  0.24077324  0.63240397  1
  O2-  O  1  0.11100888  0.41679130  0.63242605  1
  O2-  O  1  0.38899112  0.08320870  0.36757395  1
  O2-  O  1  0.88899112  0.41679130  0.86757395  1
  O2-  O  1  0.63399751  0.40792525  0.12998234  1
