# generated using pymatgen
data_LiNi2P4H3O14
_symmetry_space_group_name_H-M   'P 1'
_cell_length_a   11.03663600
_cell_length_b   12.97789800
_cell_length_c   8.88551670
_cell_angle_alpha   90.00000000
_cell_angle_beta   123.20712720
_cell_angle_gamma   90.00000000
_symmetry_Int_Tables_number   1
_chemical_formula_structural   LiNi2P4H3O14
_chemical_formula_sum   'Li4 Ni8 P16 H12 O56'
_cell_volume   1064.85765290
_cell_formula_units_Z   4
loop_
 _symmetry_equiv_pos_site_id
 _symmetry_equiv_pos_as_xyz
  1  'x, y, z'
loop_
 _atom_type_symbol
 _atom_type_oxidation_number
  Li+  1.0
  Ni2+  2.0
  P5+  5.0
  H+  1.0
  O2-  -2.0
loop_
 _atom_site_type_symbol
 _atom_site_label
 _atom_site_symmetry_multiplicity
 _atom_site_fract_x
 _atom_site_fract_y
 _atom_site_fract_z
 _atom_site_occupancy
  Li+  Li  1  0.49592550  0.13979650  0.74273000  1
  Li+  Li  1  0.49592550  0.86020350  0.24273000  1
  Li+  Li  1  0.99592550  0.63979650  0.74273000  1
  Li+  Li  1  0.99592550  0.36020350  0.24273000  1
  Ni2+  Ni  1  0.74776450  0.74927250  0.00298600  1
  Ni2+  Ni  1  0.49972900  0.09510300  0.25133000  1
  Ni2+  Ni  1  0.49972900  0.90489700  0.75133000  1
  Ni2+  Ni  1  0.74776450  0.25072750  0.50298600  1
  Ni2+  Ni  1  0.24776450  0.24927250  0.00298600  1
  Ni2+  Ni  1  0.99972900  0.59510300  0.25133000  1
  Ni2+  Ni  1  0.99972900  0.40489700  0.75133000  1
  Ni2+  Ni  1  0.24776450  0.75072750  0.50298600  1
  P5+  P  1  0.42952700  0.28468500  0.43493400  1
  P5+  P  1  0.27861650  0.04438650  0.81686800  1
  P5+  P  1  0.56793250  0.28823750  0.07155800  1
  P5+  P  1  0.27861650  0.95561350  0.31686800  1
  P5+  P  1  0.72206700  0.04576200  0.68539200  1
  P5+  P  1  0.42952700  0.71531500  0.93493400  1
  P5+  P  1  0.72206700  0.95423800  0.18539200  1
  P5+  P  1  0.56793250  0.71176250  0.57155800  1
  P5+  P  1  0.92952700  0.78468500  0.43493400  1
  P5+  P  1  0.77861650  0.54438650  0.81686800  1
  P5+  P  1  0.06793250  0.78823750  0.07155800  1
  P5+  P  1  0.77861650  0.45561350  0.31686800  1
  P5+  P  1  0.22206700  0.54576200  0.68539200  1
  P5+  P  1  0.92952700  0.21531500  0.93493400  1
  P5+  P  1  0.22206700  0.45423800  0.18539200  1
  P5+  P  1  0.06793250  0.21176250  0.57155800  1
  H+  H  1  0.72395450  0.25072550  0.99065200  1
  H+  H  1  0.16372650  0.10503250  0.20730200  1
  H+  H  1  0.16372650  0.89496750  0.70730200  1
  H+  H  1  0.83440500  0.10377800  0.28997400  1
  H+  H  1  0.83440500  0.89622200  0.78997400  1
  H+  H  1  0.72395450  0.74927450  0.49065200  1
  H+  H  1  0.22395450  0.75072550  0.99065200  1
  H+  H  1  0.66372650  0.60503250  0.20730200  1
  H+  H  1  0.66372650  0.39496750  0.70730200  1
  H+  H  1  0.33440500  0.60377800  0.28997400  1
  H+  H  1  0.33440500  0.39622200  0.78997400  1
  H+  H  1  0.22395450  0.24927450  0.49065200  1
  O2-  O  1  0.40828450  0.31329850  0.96147600  1
  O2-  O  1  0.15783250  0.10759550  0.64327600  1
  O2-  O  1  0.31896100  0.10631800  0.98368100  1
  O2-  O  1  0.37995700  0.24000600  0.55095200  1
  O2-  O  1  0.61399350  0.24332350  0.94573600  1
  O2-  O  1  0.20022800  0.94443700  0.81276000  1
  O2-  O  1  0.59000300  0.31358600  0.54015100  1
  O2-  O  1  0.38614950  0.21746450  0.26983500  1
  O2-  O  1  0.20022800  0.05556300  0.31276000  1
  O2-  O  1  0.40285250  0.02808650  0.79334100  1
  O2-  O  1  0.61472550  0.21806450  0.23215200  1
  O2-  O  1  0.15783250  0.89240450  0.14327600  1
  O2-  O  1  0.31896100  0.89368200  0.48368100  1
  O2-  O  1  0.59657800  0.02796500  0.70647600  1
  O2-  O  1  0.40285250  0.97191350  0.29334100  1
  O2-  O  1  0.68064000  0.10647900  0.51661500  1
  O2-  O  1  0.84227900  0.10818800  0.85687400  1
  O2-  O  1  0.38614950  0.78253550  0.76983500  1
  O2-  O  1  0.59657800  0.97203500  0.20647600  1
  O2-  O  1  0.79796950  0.94484250  0.68504800  1
  O2-  O  1  0.61472550  0.78193550  0.73215200  1
  O2-  O  1  0.40828450  0.68670150  0.46147600  1
  O2-  O  1  0.79796950  0.05515750  0.18504800  1
  O2-  O  1  0.37995700  0.75999400  0.05095200  1
  O2-  O  1  0.61399350  0.75667650  0.44573600  1
  O2-  O  1  0.68064000  0.89352100  0.01661500  1
  O2-  O  1  0.84227900  0.89181200  0.35687400  1
  O2-  O  1  0.59000300  0.68641400  0.04015100  1
  O2-  O  1  0.90828450  0.81329850  0.96147600  1
  O2-  O  1  0.65783250  0.60759550  0.64327600  1
  O2-  O  1  0.81896100  0.60631800  0.98368100  1
  O2-  O  1  0.87995700  0.74000600  0.55095200  1
  O2-  O  1  0.11399350  0.74332350  0.94573600  1
  O2-  O  1  0.70022800  0.44443700  0.81276000  1
  O2-  O  1  0.09000300  0.81358600  0.54015100  1
  O2-  O  1  0.88614950  0.71746450  0.26983500  1
  O2-  O  1  0.70022800  0.55556300  0.31276000  1
  O2-  O  1  0.90285250  0.52808650  0.79334100  1
  O2-  O  1  0.11472550  0.71806450  0.23215200  1
  O2-  O  1  0.65783250  0.39240450  0.14327600  1
  O2-  O  1  0.81896100  0.39368200  0.48368100  1
  O2-  O  1  0.09657800  0.52796500  0.70647600  1
  O2-  O  1  0.90285250  0.47191350  0.29334100  1
  O2-  O  1  0.18064000  0.60647900  0.51661500  1
  O2-  O  1  0.34227900  0.60818800  0.85687400  1
  O2-  O  1  0.88614950  0.28253550  0.76983500  1
  O2-  O  1  0.09657800  0.47203500  0.20647600  1
  O2-  O  1  0.29796950  0.44484250  0.68504800  1
  O2-  O  1  0.11472550  0.28193550  0.73215200  1
  O2-  O  1  0.90828450  0.18670150  0.46147600  1
  O2-  O  1  0.29796950  0.55515750  0.18504800  1
  O2-  O  1  0.87995700  0.25999400  0.05095200  1
  O2-  O  1  0.11399350  0.25667650  0.44573600  1
  O2-  O  1  0.18064000  0.39352100  0.01661500  1
  O2-  O  1  0.34227900  0.39181200  0.35687400  1
  O2-  O  1  0.09000300  0.18641400  0.04015100  1
