# generated using pymatgen
data_Li8SnO6
_symmetry_space_group_name_H-M   'P 1'
_cell_length_a   5.43851760
_cell_length_b   5.43851760
_cell_length_c   15.22242085
_cell_angle_alpha   90.00000000
_cell_angle_beta   90.00000000
_cell_angle_gamma   120.00000000
_symmetry_Int_Tables_number   1
_chemical_formula_structural   Li8SnO6
_chemical_formula_sum   'Li24 Sn3 O18'
_cell_volume   389.91992982
_cell_formula_units_Z   3
loop_
 _symmetry_equiv_pos_site_id
 _symmetry_equiv_pos_as_xyz
  1  'x, y, z'
loop_
 _atom_type_symbol
 _atom_type_oxidation_number
  Li+  1.0
  Sn4+  4.0
  O2-  -2.0
loop_
 _atom_site_type_symbol
 _atom_site_label
 _atom_site_symmetry_multiplicity
 _atom_site_fract_x
 _atom_site_fract_y
 _atom_site_fract_z
 _atom_site_occupancy
  Li+  Li  1  0.29203267  0.31391738  0.21273886  1
  Li+  Li  1  0.02188470  0.70796733  0.21273886  1
  Li+  Li  1  0.68608262  0.97811530  0.21273886  1
  Li+  Li  1  0.37463399  0.01941596  0.12059448  1
  Li+  Li  1  0.64478196  0.62536601  0.12059448  1
  Li+  Li  1  0.98058404  0.35521804  0.12059448  1
  Li+  Li  1  0.33333333  0.66666667  0.32186734  1
  Li+  Li  1  0.33333333  0.66666667  0.01146600  1
  Li+  Li  1  0.95869934  0.64725071  0.54607219  1
  Li+  Li  1  0.68855137  0.04130066  0.54607219  1
  Li+  Li  1  0.35274929  0.31144863  0.54607219  1
  Li+  Li  1  0.04130066  0.35274929  0.45392781  1
  Li+  Li  1  0.31144863  0.95869934  0.45392781  1
  Li+  Li  1  0.64725071  0.68855137  0.45392781  1
  Li+  Li  1  0.00000000  0.00000000  0.65520067  1
  Li+  Li  1  0.00000000  0.00000000  0.34479933  1
  Li+  Li  1  0.62536601  0.98058404  0.87940552  1
  Li+  Li  1  0.35521804  0.37463399  0.87940552  1
  Li+  Li  1  0.01941596  0.64478196  0.87940552  1
  Li+  Li  1  0.70796733  0.68608262  0.78726114  1
  Li+  Li  1  0.97811530  0.29203267  0.78726114  1
  Li+  Li  1  0.31391738  0.02188470  0.78726114  1
  Li+  Li  1  0.66666667  0.33333333  0.98853400  1
  Li+  Li  1  0.66666667  0.33333333  0.67813266  1
  Sn4+  Sn  1  0.00000000  0.00000000  0.00000000  1
  Sn4+  Sn  1  0.66666667  0.33333333  0.33333333  1
  Sn4+  Sn  1  0.33333333  0.66666667  0.66666667  1
  O2-  O  1  0.68292935  0.98718693  0.08128170  1
  O2-  O  1  0.36240909  0.01626268  0.25205163  1
  O2-  O  1  0.65385360  0.63759091  0.25205163  1
  O2-  O  1  0.98373732  0.34614640  0.25205163  1
  O2-  O  1  0.30425758  0.31707065  0.08128170  1
  O2-  O  1  0.01281307  0.69574242  0.08128170  1
  O2-  O  1  0.34959602  0.32052026  0.41461503  1
  O2-  O  1  0.02907575  0.34959602  0.58538497  1
  O2-  O  1  0.32052026  0.97092425  0.58538497  1
  O2-  O  1  0.65040398  0.67947974  0.58538497  1
  O2-  O  1  0.97092425  0.65040398  0.41461503  1
  O2-  O  1  0.67947974  0.02907575  0.41461503  1
  O2-  O  1  0.01626268  0.65385360  0.74794837  1
  O2-  O  1  0.69574242  0.68292935  0.91871830  1
  O2-  O  1  0.98718693  0.30425758  0.91871830  1
  O2-  O  1  0.31707065  0.01281307  0.91871830  1
  O2-  O  1  0.63759091  0.98373732  0.74794837  1
  O2-  O  1  0.34614640  0.36240909  0.74794837  1
