# generated using pymatgen
data_Li5GaO4
_symmetry_space_group_name_H-M   'P 1'
_cell_length_a   9.03365016
_cell_length_b   9.09319375
_cell_length_c   9.11141053
_cell_angle_alpha   90.00000000
_cell_angle_beta   90.00000000
_cell_angle_gamma   90.00000000
_symmetry_Int_Tables_number   1
_chemical_formula_structural   Li5GaO4
_chemical_formula_sum   'Li40 Ga8 O32'
_cell_volume   748.45436861
_cell_formula_units_Z   8
loop_
 _symmetry_equiv_pos_site_id
 _symmetry_equiv_pos_as_xyz
  1  'x, y, z'
loop_
 _atom_type_symbol
 _atom_type_oxidation_number
  Li+  1.0
  Ga3+  3.0
  O2-  -2.0
loop_
 _atom_site_type_symbol
 _atom_site_label
 _atom_site_symmetry_multiplicity
 _atom_site_fract_x
 _atom_site_fract_y
 _atom_site_fract_z
 _atom_site_occupancy
  Li+  Li  1  0.89653178  0.38155811  0.15601340  1
  Li+  Li  1  0.39653178  0.61844189  0.34398660  1
  Li+  Li  1  0.60346822  0.88155811  0.84398660  1
  Li+  Li  1  0.10346822  0.11844189  0.65601340  1
  Li+  Li  1  0.10346822  0.61844189  0.84398660  1
  Li+  Li  1  0.60346822  0.38155811  0.65601340  1
  Li+  Li  1  0.39653178  0.11844189  0.15601340  1
  Li+  Li  1  0.89653178  0.88155811  0.34398660  1
  Li+  Li  1  0.89524276  0.12677928  0.85397992  1
  Li+  Li  1  0.39524276  0.87322072  0.64602008  1
  Li+  Li  1  0.60475724  0.62677928  0.14602008  1
  Li+  Li  1  0.10475724  0.37322072  0.35397992  1
  Li+  Li  1  0.10475724  0.87322072  0.14602008  1
  Li+  Li  1  0.60475724  0.12677928  0.35397992  1
  Li+  Li  1  0.39524276  0.37322072  0.85397992  1
  Li+  Li  1  0.89524276  0.62677928  0.64602008  1
  Li+  Li  1  0.85983794  0.38759664  0.89332068  1
  Li+  Li  1  0.35983794  0.61240336  0.60667932  1
  Li+  Li  1  0.64016206  0.88759664  0.10667932  1
  Li+  Li  1  0.83610725  0.60739133  0.37943606  1
  Li+  Li  1  0.14016206  0.61240336  0.10667932  1
  Li+  Li  1  0.64016206  0.38759664  0.39332068  1
  Li+  Li  1  0.35983794  0.11240336  0.89332068  1
  Li+  Li  1  0.85983794  0.88759664  0.60667932  1
  Li+  Li  1  0.87299666  0.14532076  0.37965063  1
  Li+  Li  1  0.37299666  0.85467924  0.12034937  1
  Li+  Li  1  0.62700334  0.64532076  0.62034937  1
  Li+  Li  1  0.12700334  0.35467924  0.87965063  1
  Li+  Li  1  0.12700334  0.85467924  0.62034937  1
  Li+  Li  1  0.62700334  0.14532076  0.87965063  1
  Li+  Li  1  0.37299666  0.35467924  0.37965063  1
  Li+  Li  1  0.87299666  0.64532076  0.12034937  1
  Li+  Li  1  0.83610725  0.10739133  0.12056394  1
  Li+  Li  1  0.33610725  0.89260867  0.37943606  1
  Li+  Li  1  0.66389275  0.60739133  0.87943606  1
  Li+  Li  1  0.16389275  0.39260867  0.62056394  1
  Li+  Li  1  0.16389275  0.89260867  0.87943606  1
  Li+  Li  1  0.66389275  0.10739133  0.62056394  1
  Li+  Li  1  0.33610725  0.39260867  0.12056394  1
  Li+  Li  1  0.14016206  0.11240336  0.39332068  1
  Ga3+  Ga  1  0.88268342  0.35455328  0.61757989  1
  Ga3+  Ga  1  0.38268342  0.64544672  0.88242011  1
  Ga3+  Ga  1  0.61731658  0.85455328  0.38242011  1
  Ga3+  Ga  1  0.11731658  0.14544672  0.11757989  1
  Ga3+  Ga  1  0.11731658  0.64544672  0.38242011  1
  Ga3+  Ga  1  0.61731658  0.35455328  0.11757989  1
  Ga3+  Ga  1  0.38268342  0.14544672  0.61757989  1
  Ga3+  Ga  1  0.88268342  0.85455328  0.88242011  1
  O2-  O  1  0.76090952  0.25053883  0.74604980  1
  O2-  O  1  0.26090952  0.74946117  0.75395020  1
  O2-  O  1  0.73909048  0.75053883  0.25395020  1
  O2-  O  1  0.23909048  0.24946117  0.24604980  1
  O2-  O  1  0.23909048  0.74946117  0.25395020  1
  O2-  O  1  0.73909048  0.25053883  0.24604980  1
  O2-  O  1  0.26090952  0.24946117  0.74604980  1
  O2-  O  1  0.76090952  0.75053883  0.75395020  1
  O2-  O  1  0.75496289  0.49207136  0.53349610  1
  O2-  O  1  0.25496289  0.50792864  0.96650390  1
  O2-  O  1  0.74503711  0.99207136  0.46650390  1
  O2-  O  1  0.24503711  0.00792864  0.03349610  1
  O2-  O  1  0.24503711  0.50792864  0.46650390  1
  O2-  O  1  0.74503711  0.49207136  0.03349610  1
  O2-  O  1  0.25496289  0.00792864  0.53349610  1
  O2-  O  1  0.75496289  0.99207136  0.96650390  1
  O2-  O  1  0.00091640  0.46782252  0.74456214  1
  O2-  O  1  0.50091640  0.53217748  0.75543786  1
  O2-  O  1  0.49908360  0.96782252  0.25543786  1
  O2-  O  1  0.99908360  0.03217748  0.24456214  1
  O2-  O  1  0.01422936  0.74955792  0.99545737  1
  O2-  O  1  0.49908360  0.46782252  0.24456214  1
  O2-  O  1  0.50091640  0.03217748  0.74456214  1
  O2-  O  1  0.00091640  0.96782252  0.75543786  1
  O2-  O  1  0.01422936  0.24955792  0.50454263  1
  O2-  O  1  0.51422936  0.75044208  0.99545737  1
  O2-  O  1  0.48577064  0.74955792  0.49545737  1
  O2-  O  1  0.98577064  0.25044208  0.00454263  1
  O2-  O  1  0.98577064  0.75044208  0.49545737  1
  O2-  O  1  0.48577064  0.24955792  0.00454263  1
  O2-  O  1  0.51422936  0.25044208  0.50454263  1
  O2-  O  1  0.99908360  0.53217748  0.25543786  1
