# generated using pymatgen
data_LiBi(PO3)4
_symmetry_space_group_name_H-M   'P 1'
_cell_length_a   16.34447787
_cell_length_b   7.02343448
_cell_length_c   9.70472856
_cell_angle_alpha   90.00000000
_cell_angle_beta   126.06164151
_cell_angle_gamma   90.00000000
_symmetry_Int_Tables_number   1
_chemical_formula_structural   LiBi(PO3)4
_chemical_formula_sum   'Li4 Bi4 P16 O48'
_cell_volume   900.57891421
_cell_formula_units_Z   4
loop_
 _symmetry_equiv_pos_site_id
 _symmetry_equiv_pos_as_xyz
  1  'x, y, z'
loop_
 _atom_type_symbol
 _atom_type_oxidation_number
  Li+  1.0
  Bi3+  3.0
  P5+  5.0
  O2-  -2.0
loop_
 _atom_site_type_symbol
 _atom_site_label
 _atom_site_symmetry_multiplicity
 _atom_site_fract_x
 _atom_site_fract_y
 _atom_site_fract_z
 _atom_site_occupancy
  Li+  Li  1  0.00000000  0.29972431  0.75000000  1
  Li+  Li  1  0.00000000  0.70027569  0.25000000  1
  Li+  Li  1  0.50000000  0.79972431  0.75000000  1
  Li+  Li  1  0.50000000  0.20027569  0.25000000  1
  Bi3+  Bi  1  0.00000000  0.80708586  0.75000000  1
  Bi3+  Bi  1  0.00000000  0.19291414  0.25000000  1
  Bi3+  Bi  1  0.50000000  0.30708586  0.75000000  1
  Bi3+  Bi  1  0.50000000  0.69291414  0.25000000  1
  P5+  P  1  0.64695361  0.34680595  0.19616998  1
  P5+  P  1  0.63919131  0.94218714  0.11530671  1
  P5+  P  1  0.86080869  0.44218714  0.38469329  1
  P5+  P  1  0.85304639  0.84680595  0.30383002  1
  P5+  P  1  0.14695361  0.15319405  0.69616998  1
  P5+  P  1  0.13919131  0.55781286  0.61530671  1
  P5+  P  1  0.36080869  0.05781286  0.88469329  1
  P5+  P  1  0.35304639  0.65319405  0.80383002  1
  P5+  P  1  0.14695361  0.84680595  0.19616998  1
  P5+  P  1  0.13919131  0.44218714  0.11530671  1
  P5+  P  1  0.36080869  0.94218714  0.38469329  1
  P5+  P  1  0.35304639  0.34680595  0.30383002  1
  P5+  P  1  0.64695361  0.65319405  0.69616998  1
  P5+  P  1  0.63919131  0.05781286  0.61530671  1
  P5+  P  1  0.86080869  0.55781286  0.88469329  1
  P5+  P  1  0.85304639  0.15319405  0.80383002  1
  O2-  O  1  0.61981558  0.77752514  0.18834660  1
  O2-  O  1  0.65731358  0.12259527  0.22889266  1
  O2-  O  1  0.63094560  0.39113632  0.03216865  1
  O2-  O  1  0.75368767  0.41906769  0.35324972  1
  O2-  O  1  0.93033069  0.09370894  0.77671659  1
  O2-  O  1  0.74631233  0.91906769  0.14675028  1
  O2-  O  1  0.86905440  0.89113632  0.46783135  1
  O2-  O  1  0.93456137  0.48671979  0.56959456  1
  O2-  O  1  0.06543863  0.48671979  0.93040544  1
  O2-  O  1  0.84268642  0.62259527  0.27110734  1
  O2-  O  1  0.88018442  0.27752514  0.31165340  1
  O2-  O  1  0.06966931  0.09370894  0.72328341  1
  O2-  O  1  0.93033069  0.90629106  0.27671659  1
  O2-  O  1  0.11981558  0.72247486  0.68834660  1
  O2-  O  1  0.15731358  0.37740473  0.72889266  1
  O2-  O  1  0.93456137  0.51328021  0.06959456  1
  O2-  O  1  0.06543863  0.51328021  0.43040544  1
  O2-  O  1  0.13094560  0.10886368  0.53216865  1
  O2-  O  1  0.25368767  0.08093231  0.85324972  1
  O2-  O  1  0.06966931  0.90629106  0.22328341  1
  O2-  O  1  0.24631233  0.58093231  0.64675028  1
  O2-  O  1  0.36905440  0.60886368  0.96783135  1
  O2-  O  1  0.34268642  0.87740473  0.77110734  1
  O2-  O  1  0.38018442  0.22247486  0.81165340  1
  O2-  O  1  0.11981558  0.27752514  0.18834660  1
  O2-  O  1  0.15731358  0.62259527  0.22889266  1
  O2-  O  1  0.13094560  0.89113632  0.03216865  1
  O2-  O  1  0.25368767  0.91906769  0.35324972  1
  O2-  O  1  0.43033069  0.59370894  0.77671659  1
  O2-  O  1  0.24631233  0.41906769  0.14675028  1
  O2-  O  1  0.36905440  0.39113632  0.46783135  1
  O2-  O  1  0.43456137  0.98671979  0.56959456  1
  O2-  O  1  0.56543863  0.98671979  0.93040544  1
  O2-  O  1  0.34268642  0.12259527  0.27110734  1
  O2-  O  1  0.38018442  0.77752514  0.31165340  1
  O2-  O  1  0.56966931  0.59370894  0.72328341  1
  O2-  O  1  0.43033069  0.40629106  0.27671659  1
  O2-  O  1  0.61981558  0.22247486  0.68834660  1
  O2-  O  1  0.65731358  0.87740473  0.72889266  1
  O2-  O  1  0.43456137  0.01328021  0.06959456  1
  O2-  O  1  0.56543863  0.01328021  0.43040544  1
  O2-  O  1  0.63094560  0.60886368  0.53216865  1
  O2-  O  1  0.75368767  0.58093231  0.85324972  1
  O2-  O  1  0.56966931  0.40629106  0.22328341  1
  O2-  O  1  0.74631233  0.08093231  0.64675028  1
  O2-  O  1  0.86905440  0.10886368  0.96783135  1
  O2-  O  1  0.84268642  0.37740473  0.77110734  1
  O2-  O  1  0.88018442  0.72247486  0.81165340  1
