# generated using pymatgen
data_Li5B7S13
_symmetry_space_group_name_H-M   'P 1'
_cell_length_a   17.42660760
_cell_length_b   21.91624614
_cell_length_c   12.32493186
_cell_angle_alpha   90.00000000
_cell_angle_beta   134.93560802
_cell_angle_gamma   90.00000000
_symmetry_Int_Tables_number   1
_chemical_formula_structural   Li5B7S13
_chemical_formula_sum   'Li40 B56 S104'
_cell_volume   3332.23855568
_cell_formula_units_Z   8
loop_
 _symmetry_equiv_pos_site_id
 _symmetry_equiv_pos_as_xyz
  1  'x, y, z'
loop_
 _atom_type_symbol
 _atom_type_oxidation_number
  Li+  1.0
  B3+  3.0
  S2-  -2.0
loop_
 _atom_site_type_symbol
 _atom_site_label
 _atom_site_symmetry_multiplicity
 _atom_site_fract_x
 _atom_site_fract_y
 _atom_site_fract_z
 _atom_site_occupancy
  Li+  Li0  1  0.67462080  0.35831765  0.25981265  1
  Li+  Li1  1  0.17462080  0.14168235  0.75981265  1
  Li+  Li2  1  0.98423874  0.00372178  0.53113031  1
  Li+  Li3  1  0.39753649  0.28186894  0.88923944  1
  Li+  Li4  1  0.89753649  0.21813106  0.38923944  1
  Li+  Li5  1  0.16836359  0.39018681  0.59235929  1
  Li+  Li6  1  0.66836359  0.10981319  0.09235929  1
  Li+  Li7  1  0.74897154  0.46844811  0.10255413  1
  Li+  Li8  1  0.24897154  0.03155189  0.60255413  1
  Li+  Li9  1  0.20053416  0.24768926  0.42992337  1
  Li+  Li10  1  0.70053416  0.25231074  0.92992337  1
  Li+  Li11  1  0.23704750  0.46391118  0.38737253  1
  Li+  Li12  1  0.73704751  0.03608882  0.88737253  1
  Li+  Li13  1  0.83525609  0.38734836  0.92040877  1
  Li+  Li14  1  0.33525609  0.11265164  0.42040877  1
  Li+  Li15  1  0.59920167  0.28576337  0.57986964  1
  Li+  Li16  1  0.09920167  0.21423663  0.07986964  1
  Li+  Li17  1  0.33778484  0.36452365  0.25726785  1
  Li+  Li18  1  0.83778483  0.13547635  0.75726785  1
  Li+  Li19  1  0.48423874  0.49627822  0.03113031  1
  Li+  Li20  1  0.17462080  0.85831765  0.25981265  1
  Li+  Li21  1  0.67462080  0.64168235  0.75981265  1
  Li+  Li22  1  0.48423874  0.50372178  0.53113031  1
  Li+  Li23  1  0.89753649  0.78186894  0.88923944  1
  Li+  Li24  1  0.39753649  0.71813106  0.38923944  1
  Li+  Li25  1  0.66836359  0.89018681  0.59235929  1
  Li+  Li26  1  0.16836359  0.60981319  0.09235929  1
  Li+  Li27  1  0.24897154  0.96844811  0.10255413  1
  Li+  Li28  1  0.74897153  0.53155189  0.60255413  1
  Li+  Li29  1  0.70053416  0.74768926  0.42992337  1
  Li+  Li30  1  0.20053416  0.75231074  0.92992337  1
  Li+  Li31  1  0.73704751  0.96391118  0.38737253  1
  Li+  Li32  1  0.23704751  0.53608882  0.88737253  1
  Li+  Li33  1  0.33525609  0.88734836  0.92040877  1
  Li+  Li34  1  0.83525609  0.61265164  0.42040877  1
  Li+  Li35  1  0.09920167  0.78576337  0.57986964  1
  Li+  Li36  1  0.59920167  0.71423663  0.07986964  1
  Li+  Li37  1  0.83778483  0.86452365  0.25726785  1
  Li+  Li38  1  0.33778483  0.63547635  0.75726785  1
  Li+  Li39  1  0.98423873  0.99627822  0.03113031  1
  B3+  B40  1  0.72096183  0.02720346  0.57766858  1
  B3+  B41  1  0.32953004  0.12390219  0.13766508  1
  B3+  B42  1  0.49777564  0.22561433  0.24606015  1
  B3+  B43  1  0.49961442  0.02455595  0.25101659  1
  B3+  B44  1  0.67006014  0.12463386  0.36201774  1
  B3+  B45  1  0.27853138  0.02619956  0.92271396  1
  B3+  B46  1  0.94199292  0.37494174  0.52130338  1
  B3+  B47  1  0.44199292  0.12505826  0.02130338  1
  B3+  B48  1  0.10528880  0.27675911  0.63358274  1
  B3+  B49  1  0.60528880  0.22324089  0.13358274  1
  B3+  B50  1  0.41040296  0.42514036  0.74230586  1
  B3+  B51  1  0.58280672  0.32748296  0.92619053  1
  B3+  B52  1  0.08280672  0.17251704  0.42619053  1
  B3+  B53  1  0.91040295  0.07485964  0.24230586  1
  B3+  B54  1  0.59213921  0.42289665  0.75862061  1
  B3+  B55  1  0.41745944  0.32568016  0.57893927  1
  B3+  B56  1  0.91745944  0.17431984  0.07893927  1
  B3+  B57  1  0.09213921  0.07710335  0.25862061  1
  B3+  B58  1  0.89251954  0.27611400  0.86396384  1
  B3+  B59  1  0.39251954  0.22388600  0.36396384  1
  B3+  B60  1  0.05775555  0.37309795  0.97773121  1
  B3+  B61  1  0.55775555  0.12690205  0.47773121  1
  B3+  B62  1  0.22096183  0.47279654  0.07766858  1
  B3+  B63  1  0.82953004  0.37609781  0.63766508  1
  B3+  B64  1  0.99961442  0.47544405  0.75101659  1
  B3+  B65  1  0.99777564  0.27438567  0.74606015  1
  B3+  B66  1  0.17006014  0.37536614  0.86201774  1
  B3+  B67  1  0.77853138  0.47380044  0.42271396  1
  B3+  B68  1  0.22096183  0.52720346  0.57766858  1
  B3+  B69  1  0.82953004  0.62390219  0.13766508  1
  B3+  B70  1  0.99777564  0.72561433  0.24606015  1
  B3+  B71  1  0.99961442  0.52455595  0.25101659  1
  B3+  B72  1  0.17006014  0.62463386  0.36201774  1
  B3+  B73  1  0.77853138  0.52619956  0.92271396  1
  B3+  B74  1  0.44199292  0.87494174  0.52130338  1
  B3+  B75  1  0.94199292  0.62505826  0.02130338  1
  B3+  B76  1  0.60528880  0.77675911  0.63358274  1
  B3+  B77  1  0.10528880  0.72324089  0.13358274  1
  B3+  B78  1  0.91040295  0.92514035  0.74230586  1
  B3+  B79  1  0.08280672  0.82748296  0.92619053  1
  B3+  B80  1  0.58280672  0.67251704  0.42619053  1
  B3+  B81  1  0.41040295  0.57485965  0.24230586  1
  B3+  B82  1  0.09213921  0.92289665  0.75862061  1
  B3+  B83  1  0.91745944  0.82568016  0.57893927  1
  B3+  B84  1  0.41745944  0.67431984  0.07893927  1
  B3+  B85  1  0.59213921  0.57710335  0.25862061  1
  B3+  B86  1  0.39251954  0.77611400  0.86396384  1
  B3+  B87  1  0.89251954  0.72388600  0.36396384  1
  B3+  B88  1  0.55775555  0.87309795  0.97773121  1
  B3+  B89  1  0.05775555  0.62690205  0.47773121  1
  B3+  B90  1  0.72096183  0.97279654  0.07766858  1
  B3+  B91  1  0.32953004  0.87609781  0.63766508  1
  B3+  B92  1  0.49961442  0.97544405  0.75101659  1
  B3+  B93  1  0.49777564  0.77438567  0.74606015  1
  B3+  B94  1  0.67006014  0.87536614  0.86201774  1
  B3+  B95  1  0.27853138  0.97380044  0.42271396  1
  S2-  S96  1  0.44302416  0.07340014  0.31245623  1
  S2-  S97  1  0.61720084  0.17792283  0.42332210  1
  S2-  S98  1  0.21283324  0.07510968  0.97011700  1
  S2-  S99  1  0.78612364  0.07521093  0.52879058  1
  S2-  S100  1  0.38049164  0.17641025  0.07281159  1
  S2-  S101  1  0.54586603  0.27662491  0.18181500  1
  S2-  S102  1  0.04586603  0.22337509  0.68181500  1
  S2-  S103  1  0.55697926  0.07274223  0.18937643  1
  S2-  S104  1  0.22500073  0.32578598  0.80295041  1
  S2-  S105  1  0.72500074  0.17421402  0.30295041  1
  S2-  S106  1  0.82748767  0.42420817  0.35243733  1
  S2-  S107  1  0.32748767  0.07579183  0.85243733  1
  S2-  S108  1  0.99361302  0.32633497  0.45617910  1
  S2-  S109  1  0.32287923  0.47441890  0.75253639  1
  S2-  S110  1  0.49361302  0.17366503  0.95617910  1
  S2-  S111  1  0.49455598  0.37796898  0.92989108  1
  S2-  S112  1  0.68043873  0.27658976  0.10887715  1
  S2-  S113  1  0.18043873  0.22341024  0.60887715  1
  S2-  S114  1  0.99455598  0.12203102  0.42989108  1
  S2-  S115  1  0.82287923  0.02558110  0.25253639  1
  S2-  S116  1  0.11087983  0.47364149  0.41314674  1
  S2-  S117  1  0.50217910  0.47704371  0.74972075  1
  S2-  S118  1  0.61087983  0.02635851  0.91314674  1
  S2-  S119  1  0.68519504  0.37415902  0.94149784  1
  S2-  S120  1  0.31660957  0.37482910  0.56163237  1
  S2-  S121  1  0.49946344  0.27362080  0.75426328  1
  S2-  S122  1  0.99946344  0.22637920  0.25426328  1
  S2-  S123  1  0.18519504  0.12584098  0.44149784  1
  S2-  S124  1  0.81660957  0.12517090  0.06163237  1
  S2-  S125  1  0.88772014  0.47347664  0.09036797  1
  S2-  S126  1  0.00217910  0.02295629  0.24972075  1
  S2-  S127  1  0.38772014  0.02652336  0.59036797  1
  S2-  S128  1  0.67883776  0.47292232  0.74766379  1
  S2-  S129  1  0.50653638  0.37410500  0.57273675  1
  S2-  S130  1  0.31972243  0.27676686  0.39332285  1
  S2-  S131  1  0.81972243  0.22323314  0.89332285  1
  S2-  S132  1  0.00653638  0.12589500  0.07273675  1
  S2-  S133  1  0.00760094  0.32351011  0.04390630  1
  S2-  S134  1  0.17883776  0.02707768  0.24766379  1
  S2-  S135  1  0.50760094  0.17648989  0.54390630  1
  S2-  S136  1  0.17286472  0.42207589  0.14761049  1
  S2-  S137  1  0.67286472  0.07792411  0.64761049  1
  S2-  S138  1  0.77515483  0.32729733  0.69914773  1
  S2-  S139  1  0.27515483  0.17270267  0.19914773  1
  S2-  S140  1  0.94302416  0.42659986  0.81245623  1
  S2-  S141  1  0.44596320  0.27664511  0.30526523  1
  S2-  S142  1  0.94596320  0.22335489  0.80526523  1
  S2-  S143  1  0.11720084  0.32207717  0.92332210  1
  S2-  S144  1  0.71283324  0.42489032  0.47011700  1
  S2-  S145  1  0.28612364  0.42478907  0.02879058  1
  S2-  S146  1  0.88049164  0.32358975  0.57281159  1
  S2-  S147  1  0.05697926  0.42725777  0.68937643  1
  S2-  S148  1  0.94302416  0.57340014  0.31245623  1
  S2-  S149  1  0.11720084  0.67792283  0.42332210  1
  S2-  S150  1  0.71283324  0.57510968  0.97011700  1
  S2-  S151  1  0.28612364  0.57521092  0.52879058  1
  S2-  S152  1  0.88049164  0.67641025  0.07281159  1
  S2-  S153  1  0.04586603  0.77662491  0.18181500  1
  S2-  S154  1  0.54586603  0.72337509  0.68181500  1
  S2-  S155  1  0.05697926  0.57274223  0.18937643  1
  S2-  S156  1  0.72500074  0.82578598  0.80295041  1
  S2-  S157  1  0.22500074  0.67421402  0.30295041  1
  S2-  S158  1  0.32748767  0.92420817  0.35243733  1
  S2-  S159  1  0.82748767  0.57579183  0.85243733  1
  S2-  S160  1  0.49361302  0.82633497  0.45617910  1
  S2-  S161  1  0.82287923  0.97441890  0.75253639  1
  S2-  S162  1  0.99361302  0.67366503  0.95617910  1
  S2-  S163  1  0.99455598  0.87796898  0.92989108  1
  S2-  S164  1  0.18043873  0.77658976  0.10887715  1
  S2-  S165  1  0.68043873  0.72341024  0.60887715  1
  S2-  S166  1  0.49455598  0.62203102  0.42989108  1
  S2-  S167  1  0.32287923  0.52558110  0.25253639  1
  S2-  S168  1  0.61087983  0.97364149  0.41314674  1
  S2-  S169  1  0.00217910  0.97704371  0.74972075  1
  S2-  S170  1  0.11087983  0.52635851  0.91314674  1
  S2-  S171  1  0.18519504  0.87415902  0.94149784  1
  S2-  S172  1  0.81660957  0.87482910  0.56163237  1
  S2-  S173  1  0.99946344  0.77362080  0.75426328  1
  S2-  S174  1  0.49946344  0.72637920  0.25426328  1
  S2-  S175  1  0.68519504  0.62584098  0.44149784  1
  S2-  S176  1  0.31660957  0.62517090  0.06163237  1
  S2-  S177  1  0.38772014  0.97347664  0.09036797  1
  S2-  S178  1  0.50217910  0.52295629  0.24972075  1
  S2-  S179  1  0.88772013  0.52652336  0.59036797  1
  S2-  S180  1  0.17883776  0.97292232  0.74766379  1
  S2-  S181  1  0.00653638  0.87410501  0.57273675  1
  S2-  S182  1  0.81972243  0.77676686  0.39332285  1
  S2-  S183  1  0.31972243  0.72323314  0.89332285  1
  S2-  S184  1  0.50653638  0.62589499  0.07273675  1
  S2-  S185  1  0.50760094  0.82351011  0.04390630  1
  S2-  S186  1  0.67883776  0.52707768  0.24766379  1
  S2-  S187  1  0.00760094  0.67648989  0.54390630  1
  S2-  S188  1  0.67286472  0.92207589  0.14761049  1
  S2-  S189  1  0.17286472  0.57792411  0.64761049  1
  S2-  S190  1  0.27515483  0.82729733  0.69914773  1
  S2-  S191  1  0.77515483  0.67270267  0.19914773  1
  S2-  S192  1  0.44302416  0.92659986  0.81245623  1
  S2-  S193  1  0.94596320  0.77664511  0.30526523  1
  S2-  S194  1  0.44596320  0.72335489  0.80526523  1
  S2-  S195  1  0.61720084  0.82207717  0.92332210  1
  S2-  S196  1  0.21283324  0.92489032  0.47011700  1
  S2-  S197  1  0.78612364  0.92478908  0.02879058  1
  S2-  S198  1  0.38049164  0.82358975  0.57281159  1
  S2-  S199  1  0.55697925  0.92725777  0.68937643  1
