# generated using pymatgen
data_Na2Li3GaO4
_symmetry_space_group_name_H-M   'P 1'
_cell_length_a   6.59212400
_cell_length_b   8.03495600
_cell_length_c   8.34437500
_cell_angle_alpha   90.00000000
_cell_angle_beta   90.00000000
_cell_angle_gamma   90.00000000
_symmetry_Int_Tables_number   1
_chemical_formula_structural   Na2Li3GaO4
_chemical_formula_sum   'Na8 Li12 Ga4 O16'
_cell_volume   441.98006772
_cell_formula_units_Z   4
loop_
 _symmetry_equiv_pos_site_id
 _symmetry_equiv_pos_as_xyz
  1  'x, y, z'
loop_
 _atom_type_symbol
 _atom_type_oxidation_number
  Na+  1.0
  Li+  1.0
  Ga3+  3.0
  O2-  -2.0
loop_
 _atom_site_type_symbol
 _atom_site_label
 _atom_site_symmetry_multiplicity
 _atom_site_fract_x
 _atom_site_fract_y
 _atom_site_fract_z
 _atom_site_occupancy
  Na+  Na  1  0.00000000  0.25942200  0.75457000  1
  Na+  Na  1  0.00000000  0.74057800  0.24543000  1
  Na+  Na  1  0.50000000  0.75942200  0.74543000  1
  Na+  Na  1  0.50000000  0.24057800  0.25457000  1
  Na+  Na  1  0.74159700  0.50000000  0.00000000  1
  Na+  Na  1  0.75840300  0.00000000  0.50000000  1
  Na+  Na  1  0.25840300  0.50000000  0.00000000  1
  Na+  Na  1  0.24159700  0.00000000  0.50000000  1
  Li+  Li  1  0.75474400  0.48461100  0.35216700  1
  Li+  Li  1  0.75474400  0.51538900  0.64783300  1
  Li+  Li  1  0.74525600  0.98461100  0.14783300  1
  Li+  Li  1  0.74525600  0.01538900  0.85216700  1
  Li+  Li  1  0.24525600  0.51538900  0.64783300  1
  Li+  Li  1  0.24525600  0.48461100  0.35216700  1
  Li+  Li  1  0.25474400  0.01538900  0.85216700  1
  Li+  Li  1  0.25474400  0.98461100  0.14783300  1
  Li+  Li  1  0.00000000  0.26483100  0.41805700  1
  Li+  Li  1  0.00000000  0.73516900  0.58194300  1
  Li+  Li  1  0.50000000  0.76483100  0.08194300  1
  Li+  Li  1  0.50000000  0.23516900  0.91805700  1
  Ga3+  Ga  1  0.00000000  0.77458800  0.87439200  1
  Ga3+  Ga  1  0.00000000  0.22541200  0.12560800  1
  Ga3+  Ga  1  0.50000000  0.27458800  0.62560800  1
  Ga3+  Ga  1  0.50000000  0.72541200  0.37439200  1
  O2-  O  1  0.00000000  0.56409800  0.77400700  1
  O2-  O  1  0.00000000  0.43590200  0.22599300  1
  O2-  O  1  0.50000000  0.06409800  0.72599300  1
  O2-  O  1  0.50000000  0.93590200  0.27400700  1
  O2-  O  1  0.75873300  0.80304700  0.98812200  1
  O2-  O  1  0.75873300  0.19695300  0.01187800  1
  O2-  O  1  0.74126700  0.30304700  0.51187800  1
  O2-  O  1  0.74126700  0.69695300  0.48812200  1
  O2-  O  1  0.24126700  0.19695300  0.01187800  1
  O2-  O  1  0.24126700  0.80304700  0.98812200  1
  O2-  O  1  0.25873300  0.69695300  0.48812200  1
  O2-  O  1  0.25873300  0.30304700  0.51187800  1
  O2-  O  1  0.00000000  0.95104000  0.72160500  1
  O2-  O  1  0.00000000  0.04896000  0.27839500  1
  O2-  O  1  0.50000000  0.45104000  0.77839500  1
  O2-  O  1  0.50000000  0.54896000  0.22160500  1
