# generated using pymatgen
data_KLiZnP2O7
_symmetry_space_group_name_H-M   'P 1'
_cell_length_a   5.15802200
_cell_length_b   10.44247700
_cell_length_c   12.60045100
_cell_angle_alpha   90.00000000
_cell_angle_beta   90.00000000
_cell_angle_gamma   90.00000000
_symmetry_Int_Tables_number   1
_chemical_formula_structural   KLiZnP2O7
_chemical_formula_sum   'K4 Li4 Zn4 P8 O28'
_cell_volume   678.69212087
_cell_formula_units_Z   4
loop_
 _symmetry_equiv_pos_site_id
 _symmetry_equiv_pos_as_xyz
  1  'x, y, z'
loop_
 _atom_type_symbol
 _atom_type_oxidation_number
  K+  1.0
  Li+  1.0
  Zn2+  2.0
  P5+  5.0
  O2-  -2.0
loop_
 _atom_site_type_symbol
 _atom_site_label
 _atom_site_symmetry_multiplicity
 _atom_site_fract_x
 _atom_site_fract_y
 _atom_site_fract_z
 _atom_site_occupancy
  K+  K  1  0.00874900  0.75642900  0.00000000  1
  K+  K  1  0.49794000  0.49047600  0.50000000  1
  K+  K  1  0.50206000  0.99047600  0.50000000  1
  K+  K  1  0.99125100  0.25642900  0.00000000  1
  Li+  Li  1  0.03848400  0.47487200  0.24989800  1
  Li+  Li  1  0.96151600  0.97487200  0.24989800  1
  Li+  Li  1  0.03848400  0.47487200  0.75010200  1
  Li+  Li  1  0.96151600  0.97487200  0.75010200  1
  Zn2+  Zn  1  0.53233900  0.27306400  0.74873100  1
  Zn2+  Zn  1  0.53233900  0.27306400  0.25126900  1
  Zn2+  Zn  1  0.46766100  0.77306400  0.25126900  1
  Zn2+  Zn  1  0.46766100  0.77306400  0.74873100  1
  P5+  P  1  0.98104900  0.71938200  0.38262600  1
  P5+  P  1  0.01895100  0.21938200  0.61737400  1
  P5+  P  1  0.98104900  0.71938200  0.61737400  1
  P5+  P  1  0.01895100  0.21938200  0.38262600  1
  P5+  P  1  0.53468900  0.52452300  0.11780200  1
  P5+  P  1  0.53468900  0.52452300  0.88219800  1
  P5+  P  1  0.46531100  0.02452300  0.88219800  1
  P5+  P  1  0.46531100  0.02452300  0.11780200  1
  O2-  O  1  0.82574800  0.51351900  0.87273200  1
  O2-  O  1  0.61622900  0.93348100  0.80746900  1
  O2-  O  1  0.31640200  0.23199600  0.62554900  1
  O2-  O  1  0.57029500  0.16248100  0.12706700  1
  O2-  O  1  0.57029500  0.16248100  0.87293300  1
  O2-  O  1  0.91881100  0.08396100  0.62651400  1
  O2-  O  1  0.11782900  0.81488500  0.30696800  1
  O2-  O  1  0.94469800  0.27582500  0.50000000  1
  O2-  O  1  0.91881100  0.08396100  0.37348600  1
  O2-  O  1  0.61622900  0.93348100  0.19253100  1
  O2-  O  1  0.82574800  0.51351900  0.12726800  1
  O2-  O  1  0.31640200  0.23199600  0.37445100  1
  O2-  O  1  0.17425200  0.01351900  0.12726800  1
  O2-  O  1  0.38377100  0.43348100  0.80746900  1
  O2-  O  1  0.08118900  0.58396100  0.37348600  1
  O2-  O  1  0.17425200  0.01351900  0.87273200  1
  O2-  O  1  0.88217100  0.31488500  0.69303200  1
  O2-  O  1  0.44478900  0.47584400  0.00000000  1
  O2-  O  1  0.42970500  0.66248100  0.12706700  1
  O2-  O  1  0.55521100  0.97584400  0.00000000  1
  O2-  O  1  0.11782900  0.81488500  0.69303200  1
  O2-  O  1  0.88217100  0.31488500  0.30696800  1
  O2-  O  1  0.08118900  0.58396100  0.62651400  1
  O2-  O  1  0.42970500  0.66248100  0.87293300  1
  O2-  O  1  0.68359800  0.73199600  0.62554900  1
  O2-  O  1  0.68359800  0.73199600  0.37445100  1
  O2-  O  1  0.05530200  0.77582500  0.50000000  1
  O2-  O  1  0.38377100  0.43348100  0.19253100  1
