# generated using pymatgen
data_Li4Ga3Si3ClO12
_symmetry_space_group_name_H-M   'P 1'
_cell_length_a   8.61536300
_cell_length_b   8.61536300
_cell_length_c   8.61536300
_cell_angle_alpha   90.00000000
_cell_angle_beta   90.00000000
_cell_angle_gamma   90.00000000
_symmetry_Int_Tables_number   1
_chemical_formula_structural   Li4Ga3Si3ClO12
_chemical_formula_sum   'Li8 Ga6 Si6 Cl2 O24'
_cell_volume   639.47083543
_cell_formula_units_Z   2
loop_
 _symmetry_equiv_pos_site_id
 _symmetry_equiv_pos_as_xyz
  1  'x, y, z'
loop_
 _atom_type_symbol
 _atom_type_oxidation_number
  Li+  1.0
  Ga3+  3.0
  Si4+  4.0
  Cl-  -1.0
  O2-  -2.0
loop_
 _atom_site_type_symbol
 _atom_site_label
 _atom_site_symmetry_multiplicity
 _atom_site_fract_x
 _atom_site_fract_y
 _atom_site_fract_z
 _atom_site_occupancy
  Li+  Li  1  0.82817900  0.82817900  0.17182100  1
  Li+  Li  1  0.17182100  0.17182100  0.17182100  1
  Li+  Li  1  0.67182100  0.67182100  0.67182100  1
  Li+  Li  1  0.32817900  0.67182100  0.32817900  1
  Li+  Li  1  0.32817900  0.32817900  0.67182100  1
  Li+  Li  1  0.17182100  0.82817900  0.82817900  1
  Li+  Li  1  0.82817900  0.17182100  0.82817900  1
  Li+  Li  1  0.67182100  0.32817900  0.32817900  1
  Ga3+  Ga  1  0.00000000  0.75000000  0.50000000  1
  Ga3+  Ga  1  0.25000000  0.50000000  0.00000000  1
  Ga3+  Ga  1  0.50000000  0.00000000  0.75000000  1
  Ga3+  Ga  1  0.50000000  0.00000000  0.25000000  1
  Ga3+  Ga  1  0.00000000  0.25000000  0.50000000  1
  Ga3+  Ga  1  0.75000000  0.50000000  0.00000000  1
  Si4+  Si  1  0.00000000  0.50000000  0.25000000  1
  Si4+  Si  1  0.50000000  0.75000000  0.00000000  1
  Si4+  Si  1  0.50000000  0.25000000  0.00000000  1
  Si4+  Si  1  0.00000000  0.50000000  0.75000000  1
  Si4+  Si  1  0.75000000  0.00000000  0.50000000  1
  Si4+  Si  1  0.25000000  0.00000000  0.50000000  1
  Cl-  Cl  1  0.00000000  0.00000000  0.00000000  1
  Cl-  Cl  1  0.50000000  0.50000000  0.50000000  1
  O2-  O  1  0.09843500  0.62662200  0.35411000  1
  O2-  O  1  0.35411000  0.09843500  0.62662200  1
  O2-  O  1  0.90156500  0.62662200  0.64589000  1
  O2-  O  1  0.40156500  0.85411000  0.87337800  1
  O2-  O  1  0.62662200  0.64589000  0.90156500  1
  O2-  O  1  0.37337800  0.35411000  0.90156500  1
  O2-  O  1  0.14589000  0.87337800  0.59843500  1
  O2-  O  1  0.35411000  0.90156500  0.37337800  1
  O2-  O  1  0.64589000  0.09843500  0.37337800  1
  O2-  O  1  0.85411000  0.87337800  0.40156500  1
  O2-  O  1  0.12662200  0.40156500  0.14589000  1
  O2-  O  1  0.12662200  0.59843500  0.85411000  1
  O2-  O  1  0.14589000  0.12662200  0.40156500  1
  O2-  O  1  0.87337800  0.40156500  0.85411000  1
  O2-  O  1  0.64589000  0.90156500  0.62662200  1
  O2-  O  1  0.37337800  0.64589000  0.09843500  1
  O2-  O  1  0.62662200  0.35411000  0.09843500  1
  O2-  O  1  0.90156500  0.37337800  0.35411000  1
  O2-  O  1  0.59843500  0.14589000  0.87337800  1
  O2-  O  1  0.09843500  0.37337800  0.64589000  1
  O2-  O  1  0.85411000  0.12662200  0.59843500  1
  O2-  O  1  0.59843500  0.85411000  0.12662200  1
  O2-  O  1  0.87337800  0.59843500  0.14589000  1
  O2-  O  1  0.40156500  0.14589000  0.12662200  1
