# generated using pymatgen
data_LiCa9Mn(PO4)7
_symmetry_space_group_name_H-M   'P 1'
_cell_length_a   10.43978577
_cell_length_b   10.43978577
_cell_length_c   37.59769465
_cell_angle_alpha   90.00000000
_cell_angle_beta   90.00000000
_cell_angle_gamma   120.00000000
_symmetry_Int_Tables_number   1
_chemical_formula_structural   LiCa9Mn(PO4)7
_chemical_formula_sum   'Li6 Ca54 Mn6 P42 O168'
_cell_volume   3548.74686616
_cell_formula_units_Z   6
loop_
 _symmetry_equiv_pos_site_id
 _symmetry_equiv_pos_as_xyz
  1  'x, y, z'
loop_
 _atom_type_symbol
 _atom_type_oxidation_number
  Li+  1.0
  Ca2+  2.0
  Mn2+  2.0
  P5+  5.0
  O2-  -2.0
loop_
 _atom_site_type_symbol
 _atom_site_label
 _atom_site_symmetry_multiplicity
 _atom_site_fract_x
 _atom_site_fract_y
 _atom_site_fract_z
 _atom_site_occupancy
  Li+  Li0  1  0.00000000  0.00000000  0.17804000  1
  Li+  Li1  1  0.66666667  0.33333333  0.01137333  1
  Li+  Li2  1  0.66666667  0.33333333  0.51137333  1
  Li+  Li3  1  0.33333333  0.66666667  0.34470667  1
  Li+  Li4  1  0.33333333  0.66666667  0.84470667  1
  Li+  Li5  1  0.00000000  0.00000000  0.67804000  1
  Ca2+  Ca6  1  0.05947800  0.52390700  0.10059900  1
  Ca2+  Ca7  1  0.28846900  0.13042400  0.06482900  1
  Ca2+  Ca8  1  0.84195500  0.71153100  0.06482900  1
  Ca2+  Ca9  1  0.81019533  0.60069967  0.15943667  1
  Ca2+  Ca10  1  0.39281133  0.20223767  0.26726567  1
  Ca2+  Ca11  1  0.39930033  0.20949567  0.15943667  1
  Ca2+  Ca12  1  0.14352867  0.87616233  0.32610333  1
  Ca2+  Ca13  1  0.86957600  0.15804500  0.06482900  1
  Ca2+  Ca14  1  0.17528833  0.79709067  0.23149567  1
  Ca2+  Ca15  1  0.47609300  0.53557100  0.10059900  1
  Ca2+  Ca16  1  0.46442900  0.94052200  0.10059900  1
  Ca2+  Ca17  1  0.20290933  0.37819767  0.23149567  1
  Ca2+  Ca18  1  0.12383767  0.26736633  0.32610333  1
  Ca2+  Ca19  1  0.73263367  0.85647133  0.32610333  1
  Ca2+  Ca20  1  0.80942633  0.60718867  0.26726567  1
  Ca2+  Ca21  1  0.62180233  0.82471167  0.23149567  1
  Ca2+  Ca22  1  0.79776233  0.19057367  0.26726567  1
  Ca2+  Ca23  1  0.79050433  0.18980467  0.15943667  1
  Ca2+  Ca24  1  0.72614467  0.85724033  0.43393233  1
  Ca2+  Ca25  1  0.95513567  0.46375733  0.39816233  1
  Ca2+  Ca26  1  0.50862167  0.04486433  0.39816233  1
  Ca2+  Ca27  1  0.47686200  0.93403300  0.49277000  1
  Ca2+  Ca28  1  0.05947800  0.53557100  0.60059900  1
  Ca2+  Ca29  1  0.06596700  0.54282900  0.49277000  1
  Ca2+  Ca30  1  0.81019533  0.20949567  0.65943667  1
  Ca2+  Ca31  1  0.53624267  0.49137833  0.39816233  1
  Ca2+  Ca32  1  0.84195500  0.13042400  0.56482900  1
  Ca2+  Ca33  1  0.14275967  0.86890433  0.43393233  1
  Ca2+  Ca34  1  0.13109567  0.27385533  0.43393233  1
  Ca2+  Ca35  1  0.86957600  0.71153100  0.56482900  1
  Ca2+  Ca36  1  0.79050433  0.60069967  0.65943667  1
  Ca2+  Ca37  1  0.39930033  0.18980467  0.65943667  1
  Ca2+  Ca38  1  0.47609300  0.94052200  0.60059900  1
  Ca2+  Ca39  1  0.28846900  0.15804500  0.56482900  1
  Ca2+  Ca40  1  0.46442900  0.52390700  0.60059900  1
  Ca2+  Ca41  1  0.45717100  0.52313800  0.49277000  1
  Ca2+  Ca42  1  0.39281133  0.19057367  0.76726567  1
  Ca2+  Ca43  1  0.62180233  0.79709067  0.73149567  1
  Ca2+  Ca44  1  0.17528833  0.37819767  0.73149567  1
  Ca2+  Ca45  1  0.14352867  0.26736633  0.82610333  1
  Ca2+  Ca46  1  0.72614467  0.86890433  0.93393233  1
  Ca2+  Ca47  1  0.73263367  0.87616233  0.82610333  1
  Ca2+  Ca48  1  0.47686200  0.54282900  0.99277000  1
  Ca2+  Ca49  1  0.20290933  0.82471167  0.73149567  1
  Ca2+  Ca50  1  0.50862167  0.46375733  0.89816233  1
  Ca2+  Ca51  1  0.80942633  0.20223767  0.76726567  1
  Ca2+  Ca52  1  0.79776233  0.60718867  0.76726567  1
  Ca2+  Ca53  1  0.53624267  0.04486433  0.89816233  1
  Ca2+  Ca54  1  0.45717100  0.93403300  0.99277000  1
  Ca2+  Ca55  1  0.06596700  0.52313800  0.99277000  1
  Ca2+  Ca56  1  0.14275967  0.27385533  0.93393233  1
  Ca2+  Ca57  1  0.95513567  0.49137833  0.89816233  1
  Ca2+  Ca58  1  0.13109567  0.85724033  0.93393233  1
  Ca2+  Ca59  1  0.12383767  0.85647133  0.82610333  1
  Mn2+  Mn60  1  0.00000000  0.00000000  0.00204600  1
  Mn2+  Mn61  1  0.33333333  0.66666667  0.16871267  1
  Mn2+  Mn62  1  0.66666667  0.33333333  0.33537933  1
  Mn2+  Mn63  1  0.00000000  0.00000000  0.50204600  1
  Mn2+  Mn64  1  0.33333333  0.66666667  0.66871267  1
  Mn2+  Mn65  1  0.66666667  0.33333333  0.83537933  1
  P5+  P66  1  0.98679100  0.47374100  0.19938200  1
  P5+  P67  1  0.19292567  0.34654233  0.03271533  1
  P5+  P68  1  0.13373967  0.82944333  0.13498733  1
  P5+  P69  1  0.02903700  0.49611000  0.30165400  1
  P5+  P70  1  0.52625900  0.51305000  0.19938200  1
  P5+  P71  1  0.15361667  0.80707433  0.03271533  1
  P5+  P72  1  0.48695000  0.01320900  0.19938200  1
  P5+  P73  1  0.65345767  0.84638333  0.03271533  1
  P5+  P74  1  0.66666667  0.33333333  0.10020133  1
  P5+  P75  1  0.17055667  0.30429633  0.13498733  1
  P5+  P76  1  0.46707300  0.97096300  0.30165400  1
  P5+  P77  1  0.00000000  0.00000000  0.26686800  1
  P5+  P78  1  0.69570367  0.86626033  0.13498733  1
  P5+  P79  1  0.50389000  0.53292700  0.30165400  1
  P5+  P80  1  0.65345767  0.80707433  0.53271533  1
  P5+  P81  1  0.85959233  0.67987567  0.36604867  1
  P5+  P82  1  0.80040633  0.16277667  0.46832067  1
  P5+  P83  1  0.69570367  0.82944333  0.63498733  1
  P5+  P84  1  0.19292567  0.84638333  0.53271533  1
  P5+  P85  1  0.82028333  0.14040767  0.36604867  1
  P5+  P86  1  0.15361667  0.34654233  0.53271533  1
  P5+  P87  1  0.32012433  0.17971667  0.36604867  1
  P5+  P88  1  0.33333333  0.66666667  0.43353467  1
  P5+  P89  1  0.83722333  0.63762967  0.46832067  1
  P5+  P90  1  0.13373967  0.30429633  0.63498733  1
  P5+  P91  1  0.66666667  0.33333333  0.60020133  1
  P5+  P92  1  0.36237033  0.19959367  0.46832067  1
  P5+  P93  1  0.17055667  0.86626033  0.63498733  1
  P5+  P94  1  0.32012433  0.14040767  0.86604867  1
  P5+  P95  1  0.52625900  0.01320900  0.69938200  1
  P5+  P96  1  0.46707300  0.49611000  0.80165400  1
  P5+  P97  1  0.36237033  0.16277667  0.96832067  1
  P5+  P98  1  0.85959233  0.17971667  0.86604867  1
  P5+  P99  1  0.48695000  0.47374100  0.69938200  1
  P5+  P100  1  0.82028333  0.67987567  0.86604867  1
  P5+  P101  1  0.98679100  0.51305000  0.69938200  1
  P5+  P102  1  0.00000000  0.00000000  0.76686800  1
  P5+  P103  1  0.50389000  0.97096300  0.80165400  1
  P5+  P104  1  0.80040633  0.63762967  0.96832067  1
  P5+  P105  1  0.33333333  0.66666667  0.93353467  1
  P5+  P106  1  0.02903700  0.53292700  0.80165400  1
  P5+  P107  1  0.83722333  0.19959367  0.96832067  1
  O2-  O108  1  0.84693467  0.13646433  0.32563133  1
  O2-  O109  1  0.95619633  0.46979767  0.15896467  1
  O2-  O110  1  0.35375700  0.39855900  0.04475300  1
  O2-  O111  1  0.85549633  0.42443367  0.30020267  1
  O2-  O112  1  0.24223300  0.47783700  0.13353600  1
  O2-  O113  1  0.04480200  0.64624300  0.04475300  1
  O2-  O114  1  0.15538067  0.56963533  0.20771033  1
  O2-  O115  1  0.52216300  0.76439600  0.13353600  1
  O2-  O116  1  0.01279067  0.23830833  0.11980733  1
  O2-  O117  1  0.16431900  0.24009400  0.17292600  1
  O2-  O118  1  0.00124133  0.85926967  0.25367867  1
  O2-  O119  1  0.14073033  0.14197167  0.25367867  1
  O2-  O120  1  0.05864567  0.38679133  0.27958533  1
  O2-  O121  1  0.09502500  0.65387600  0.28647400  1
  O2-  O122  1  0.75990600  0.92422500  0.17292600  1
  O2-  O123  1  0.74244167  0.57342733  0.00625933  1
  O2-  O124  1  0.68709033  0.62186467  0.21141967  1
  O2-  O125  1  0.93477433  0.31290967  0.21141967  1
  O2-  O126  1  0.55885100  0.90497500  0.28647400  1
  O2-  O127  1  0.45398633  0.36091767  0.21805567  1
  O2-  O128  1  0.32814567  0.94135433  0.27958533  1
  O2-  O129  1  0.00000000  0.00000000  0.30819400  1
  O2-  O130  1  0.99481233  0.72012467  0.11291867  1
  O2-  O131  1  0.30574900  0.87934700  0.05138900  1
  O2-  O132  1  0.34612400  0.44114900  0.28647400  1
  O2-  O133  1  0.83098567  0.25755833  0.00625933  1
  O2-  O134  1  0.09703133  0.17795267  0.04104367  1
  O2-  O135  1  0.66790800  0.47530500  0.08701200  1
  O2-  O136  1  0.27987533  0.27468767  0.11291867  1
  O2-  O137  1  0.51360133  0.04380367  0.15896467  1
  O2-  O138  1  0.22551767  0.98720933  0.11980733  1
  O2-  O139  1  0.23560400  0.75776700  0.13353600  1
  O2-  O140  1  0.37813533  0.06522567  0.21141967  1
  O2-  O141  1  0.61320867  0.67185433  0.27958533  1
  O2-  O142  1  0.60144100  0.95519800  0.04475300  1
  O2-  O143  1  0.85802833  0.99875867  0.25367867  1
  O2-  O144  1  0.43036467  0.58574533  0.20771033  1
  O2-  O145  1  0.76169167  0.77448233  0.11980733  1
  O2-  O146  1  0.57359800  0.69425100  0.05138900  1
  O2-  O147  1  0.28952967  0.15306533  0.32563133  1
  O2-  O148  1  0.86353567  0.71047033  0.32563133  1
  O2-  O149  1  0.90693133  0.54601367  0.21805567  1
  O2-  O150  1  0.57556633  0.43106267  0.30020267  1
  O2-  O151  1  0.53020233  0.48639867  0.15896467  1
  O2-  O152  1  0.56893733  0.14450367  0.30020267  1
  O2-  O153  1  0.52469500  0.19260300  0.08701200  1
  O2-  O154  1  0.42657267  0.16901433  0.00625933  1
  O2-  O155  1  0.80739700  0.33209200  0.08701200  1
  O2-  O156  1  0.41425467  0.84461933  0.20771033  1
  O2-  O157  1  0.72531233  0.00518767  0.11291867  1
  O2-  O158  1  0.12065300  0.42640200  0.05138900  1
  O2-  O159  1  0.63908233  0.09306867  0.21805567  1
  O2-  O160  1  0.07577500  0.83568100  0.17292600  1
  O2-  O161  1  0.82204733  0.91907867  0.04104367  1
  O2-  O162  1  0.08092133  0.90296867  0.04104367  1
  O2-  O163  1  0.66666667  0.33333333  0.14152733  1
  O2-  O164  1  0.51360133  0.46979767  0.65896467  1
  O2-  O165  1  0.62286300  0.80313100  0.49229800  1
  O2-  O166  1  0.02042367  0.73189233  0.37808633  1
  O2-  O167  1  0.52216300  0.75776700  0.63353600  1
  O2-  O168  1  0.90889967  0.81117033  0.46686933  1
  O2-  O169  1  0.71146867  0.97957633  0.37808633  1
  O2-  O170  1  0.82204733  0.90296867  0.54104367  1
  O2-  O171  1  0.18882967  0.09772933  0.46686933  1
  O2-  O172  1  0.67945733  0.57164167  0.45314067  1
  O2-  O173  1  0.83098567  0.57342733  0.50625933  1
  O2-  O174  1  0.66790800  0.19260300  0.58701200  1
  O2-  O175  1  0.80739700  0.47530500  0.58701200  1
  O2-  O176  1  0.72531233  0.72012467  0.61291867  1
  O2-  O177  1  0.76169167  0.98720933  0.61980733  1
  O2-  O178  1  0.42657267  0.25755833  0.50625933  1
  O2-  O179  1  0.40910833  0.90676067  0.33959267  1
  O2-  O180  1  0.35375700  0.95519800  0.54475300  1
  O2-  O181  1  0.60144100  0.64624300  0.54475300  1
  O2-  O182  1  0.22551767  0.23830833  0.61980733  1
  O2-  O183  1  0.12065300  0.69425100  0.55138900  1
  O2-  O184  1  0.99481233  0.27468767  0.61291867  1
  O2-  O185  1  0.66666667  0.33333333  0.64152733  1
  O2-  O186  1  0.66147900  0.05345800  0.44625200  1
  O2-  O187  1  0.97241567  0.21268033  0.38472233  1
  O2-  O188  1  0.01279067  0.77448233  0.61980733  1
  O2-  O189  1  0.49765233  0.59089167  0.33959267  1
  O2-  O190  1  0.76369800  0.51128600  0.37437700  1
  O2-  O191  1  0.33457467  0.80863833  0.42034533  1
  O2-  O192  1  0.94654200  0.60802100  0.44625200  1
  O2-  O193  1  0.18026800  0.37713700  0.49229800  1
  O2-  O194  1  0.89218433  0.32054267  0.45314067  1
  O2-  O195  1  0.90227067  0.09110033  0.46686933  1
  O2-  O196  1  0.04480200  0.39855900  0.54475300  1
  O2-  O197  1  0.27987533  0.00518767  0.61291867  1
  O2-  O198  1  0.26810767  0.28853133  0.37808633  1
  O2-  O199  1  0.52469500  0.33209200  0.58701200  1
  O2-  O200  1  0.09703133  0.91907867  0.54104367  1
  O2-  O201  1  0.42835833  0.10781567  0.45314067  1
  O2-  O202  1  0.24026467  0.02758433  0.38472233  1
  O2-  O203  1  0.95619633  0.48639867  0.65896467  1
  O2-  O204  1  0.53020233  0.04380367  0.65896467  1
  O2-  O205  1  0.57359800  0.87934700  0.55138900  1
  O2-  O206  1  0.24223300  0.76439600  0.63353600  1
  O2-  O207  1  0.19686900  0.81973200  0.49229800  1
  O2-  O208  1  0.23560400  0.47783700  0.63353600  1
  O2-  O209  1  0.19136167  0.52593633  0.42034533  1
  O2-  O210  1  0.09323933  0.50234767  0.33959267  1
  O2-  O211  1  0.47406367  0.66542533  0.42034533  1
  O2-  O212  1  0.08092133  0.17795267  0.54104367  1
  O2-  O213  1  0.39197900  0.33852100  0.44625200  1
  O2-  O214  1  0.78731967  0.75973533  0.38472233  1
  O2-  O215  1  0.30574900  0.42640200  0.55138900  1
  O2-  O216  1  0.74244167  0.16901433  0.50625933  1
  O2-  O217  1  0.48871400  0.25241200  0.37437700  1
  O2-  O218  1  0.74758800  0.23630200  0.37437700  1
  O2-  O219  1  0.33333333  0.66666667  0.47486067  1
  O2-  O220  1  0.18026800  0.80313100  0.99229800  1
  O2-  O221  1  0.28952967  0.13646433  0.82563133  1
  O2-  O222  1  0.68709033  0.06522567  0.71141967  1
  O2-  O223  1  0.18882967  0.09110033  0.96686933  1
  O2-  O224  1  0.57556633  0.14450367  0.80020267  1
  O2-  O225  1  0.37813533  0.31290967  0.71141967  1
  O2-  O226  1  0.48871400  0.23630200  0.87437700  1
  O2-  O227  1  0.85549633  0.43106267  0.80020267  1
  O2-  O228  1  0.34612400  0.90497500  0.78647400  1
  O2-  O229  1  0.49765233  0.90676067  0.83959267  1
  O2-  O230  1  0.33457467  0.52593633  0.92034533  1
  O2-  O231  1  0.47406367  0.80863833  0.92034533  1
  O2-  O232  1  0.39197900  0.05345800  0.94625200  1
  O2-  O233  1  0.42835833  0.32054267  0.95314067  1
  O2-  O234  1  0.09323933  0.59089167  0.83959267  1
  O2-  O235  1  0.07577500  0.24009400  0.67292600  1
  O2-  O236  1  0.02042367  0.28853133  0.87808633  1
  O2-  O237  1  0.26810767  0.97957633  0.87808633  1
  O2-  O238  1  0.89218433  0.57164167  0.95314067  1
  O2-  O239  1  0.78731967  0.02758433  0.88472233  1
  O2-  O240  1  0.66147900  0.60802100  0.94625200  1
  O2-  O241  1  0.33333333  0.66666667  0.97486067  1
  O2-  O242  1  0.32814567  0.38679133  0.77958533  1
  O2-  O243  1  0.63908233  0.54601367  0.71805567  1
  O2-  O244  1  0.67945733  0.10781567  0.95314067  1
  O2-  O245  1  0.16431900  0.92422500  0.67292600  1
  O2-  O246  1  0.43036467  0.84461933  0.70771033  1
  O2-  O247  1  0.00124133  0.14197167  0.75367867  1
  O2-  O248  1  0.61320867  0.94135433  0.77958533  1
  O2-  O249  1  0.84693467  0.71047033  0.82563133  1
  O2-  O250  1  0.55885100  0.65387600  0.78647400  1
  O2-  O251  1  0.56893733  0.42443367  0.80020267  1
  O2-  O252  1  0.71146867  0.73189233  0.87808633  1
  O2-  O253  1  0.94654200  0.33852100  0.94625200  1
  O2-  O254  1  0.93477433  0.62186467  0.71141967  1
  O2-  O255  1  0.19136167  0.66542533  0.92034533  1
  O2-  O256  1  0.76369800  0.25241200  0.87437700  1
  O2-  O257  1  0.09502500  0.44114900  0.78647400  1
  O2-  O258  1  0.90693133  0.36091767  0.71805567  1
  O2-  O259  1  0.62286300  0.81973200  0.99229800  1
  O2-  O260  1  0.19686900  0.37713700  0.99229800  1
  O2-  O261  1  0.24026467  0.21268033  0.88472233  1
  O2-  O262  1  0.90889967  0.09772933  0.96686933  1
  O2-  O263  1  0.86353567  0.15306533  0.82563133  1
  O2-  O264  1  0.90227067  0.81117033  0.96686933  1
  O2-  O265  1  0.85802833  0.85926967  0.75367867  1
  O2-  O266  1  0.75990600  0.83568100  0.67292600  1
  O2-  O267  1  0.14073033  0.99875867  0.75367867  1
  O2-  O268  1  0.74758800  0.51128600  0.87437700  1
  O2-  O269  1  0.05864567  0.67185433  0.77958533  1
  O2-  O270  1  0.45398633  0.09306867  0.71805567  1
  O2-  O271  1  0.97241567  0.75973533  0.88472233  1
  O2-  O272  1  0.40910833  0.50234767  0.83959267  1
  O2-  O273  1  0.15538067  0.58574533  0.70771033  1
  O2-  O274  1  0.41425467  0.56963533  0.70771033  1
  O2-  O275  1  0.00000000  0.00000000  0.80819400  1
