# generated using pymatgen
data_LiSn2(PO4)3
_symmetry_space_group_name_H-M   'P 1'
_cell_length_a   8.42312857
_cell_length_b   8.45040255
_cell_length_c   8.92346625
_cell_angle_alpha   61.44065750
_cell_angle_beta   61.85786968
_cell_angle_gamma   60.52663413
_symmetry_Int_Tables_number   1
_chemical_formula_structural   LiSn2(PO4)3
_chemical_formula_sum   'Li2 Sn4 P6 O24'
_cell_volume   461.87710734
_cell_formula_units_Z   2
loop_
 _symmetry_equiv_pos_site_id
 _symmetry_equiv_pos_as_xyz
  1  'x, y, z'
loop_
 _atom_type_symbol
 _atom_type_oxidation_number
  Li+  1.0
  Sn4+  4.0
  P5+  5.0
  O2-  -2.0
loop_
 _atom_site_type_symbol
 _atom_site_label
 _atom_site_symmetry_multiplicity
 _atom_site_fract_x
 _atom_site_fract_y
 _atom_site_fract_z
 _atom_site_occupancy
  Li+  Li  1  0.77410695  0.18004500  0.57309094  1
  Li+  Li  1  0.22589305  0.81995500  0.42690906  1
  Sn4+  Sn  1  0.64348198  0.64721084  0.56062388  1
  Sn4+  Sn  1  0.86503707  0.85879559  0.93084137  1
  Sn4+  Sn  1  0.13496293  0.14120441  0.06915863  1
  Sn4+  Sn  1  0.35651802  0.35278916  0.43937612  1
  P5+  P  1  0.03886838  0.74570569  0.24703242  1
  P5+  P  1  0.46220252  0.03100308  0.25163625  1
  P5+  P  1  0.96113162  0.25429431  0.75296758  1
  P5+  P  1  0.53779748  0.96899692  0.74836375  1
  P5+  P  1  0.74943487  0.45584837  0.25353962  1
  P5+  P  1  0.25056513  0.54415163  0.74646038  1
  O2-  O  1  0.25674468  0.54629158  0.56925066  1
  O2-  O  1  0.83134283  0.46198714  0.69942813  1
  O2-  O  1  0.88318192  0.12364882  0.75082810  1
  O2-  O  1  0.73658220  0.89669807  0.76622223  1
  O2-  O  1  0.38063900  0.99114151  0.92205361  1
  O2-  O  1  0.74325532  0.45370842  0.43074934  1
  O2-  O  1  0.26341780  0.10330193  0.23377777  1
  O2-  O  1  0.16460080  0.22156676  0.62398200  1
  O2-  O  1  0.61936100  0.00885849  0.07794639  1
  O2-  O  1  0.55208908  0.48357809  0.26321703  1
  O2-  O  1  0.96079022  0.19604271  0.94281386  1
  O2-  O  1  0.03920978  0.80395729  0.05718614  1
  O2-  O  1  0.83539920  0.77843324  0.37601800  1
  O2-  O  1  0.44791092  0.51642191  0.73678297  1
  O2-  O  1  0.16865717  0.53801286  0.30057187  1
  O2-  O  1  0.11085413  0.74633781  0.75123813  1
  O2-  O  1  0.47806573  0.16530715  0.30591303  1
  O2-  O  1  0.46843765  0.83353429  0.40094273  1
  O2-  O  1  0.88914587  0.25366219  0.24876187  1
  O2-  O  1  0.11681808  0.87635118  0.24917190  1
  O2-  O  1  0.52193427  0.83469285  0.69408697  1
  O2-  O  1  0.53156235  0.16646571  0.59905727  1
  O2-  O  1  0.81806954  0.60994134  0.09285500  1
  O2-  O  1  0.18193046  0.39005866  0.90714500  1
