# generated using pymatgen
data_Li4Ga3Si3BrO12
_symmetry_space_group_name_H-M   'P 1'
_cell_length_a   8.55439049
_cell_length_b   8.55439049
_cell_length_c   8.55439049
_cell_angle_alpha   90.00000000
_cell_angle_beta   90.00000000
_cell_angle_gamma   90.00000000
_symmetry_Int_Tables_number   1
_chemical_formula_structural   Li4Ga3Si3BrO12
_chemical_formula_sum   'Li8 Ga6 Si6 Br2 O24'
_cell_volume   625.98973691
_cell_formula_units_Z   2
loop_
 _symmetry_equiv_pos_site_id
 _symmetry_equiv_pos_as_xyz
  1  'x, y, z'
loop_
 _atom_type_symbol
 _atom_type_oxidation_number
  Li+  1.0
  Ga3+  3.0
  Si4+  4.0
  Br-  -1.0
  O2-  -2.0
loop_
 _atom_site_type_symbol
 _atom_site_label
 _atom_site_symmetry_multiplicity
 _atom_site_fract_x
 _atom_site_fract_y
 _atom_site_fract_z
 _atom_site_occupancy
  Li+  Li  1  0.32129103  0.32129103  0.67870897  1
  Li+  Li  1  0.17870897  0.82129103  0.82129103  1
  Li+  Li  1  0.32129103  0.67870897  0.32129103  1
  Li+  Li  1  0.82129103  0.17870897  0.82129103  1
  Li+  Li  1  0.17870897  0.17870897  0.17870897  1
  Li+  Li  1  0.67870897  0.67870897  0.67870897  1
  Li+  Li  1  0.67870897  0.32129103  0.32129103  1
  Li+  Li  1  0.82129103  0.82129103  0.17870897  1
  Ga3+  Ga  1  0.00000000  0.75000000  0.50000000  1
  Ga3+  Ga  1  0.25000000  0.50000000  0.00000000  1
  Ga3+  Ga  1  0.50000000  0.00000000  0.75000000  1
  Ga3+  Ga  1  0.50000000  0.00000000  0.25000000  1
  Ga3+  Ga  1  0.00000000  0.25000000  0.50000000  1
  Ga3+  Ga  1  0.75000000  0.50000000  0.00000000  1
  Si4+  Si  1  0.00000000  0.50000000  0.25000000  1
  Si4+  Si  1  0.50000000  0.75000000  0.00000000  1
  Si4+  Si  1  0.50000000  0.25000000  0.00000000  1
  Si4+  Si  1  0.00000000  0.50000000  0.75000000  1
  Si4+  Si  1  0.75000000  0.00000000  0.50000000  1
  Si4+  Si  1  0.25000000  0.00000000  0.50000000  1
  Br-  Br  1  0.00000000  0.00000000  0.00000000  1
  Br-  Br  1  0.50000000  0.50000000  0.50000000  1
  O2-  O  1  0.90258995  0.62705596  0.64643713  1
  O2-  O  1  0.40258995  0.85356287  0.87294404  1
  O2-  O  1  0.09741005  0.37294404  0.64643713  1
  O2-  O  1  0.85356287  0.87294404  0.40258995  1
  O2-  O  1  0.40258995  0.14643713  0.12705596  1
  O2-  O  1  0.64643713  0.09741005  0.37294404  1
  O2-  O  1  0.37294404  0.35356287  0.90258995  1
  O2-  O  1  0.35356287  0.90258995  0.37294404  1
  O2-  O  1  0.59741005  0.85356287  0.12705596  1
  O2-  O  1  0.14643713  0.12705596  0.40258995  1
  O2-  O  1  0.59741005  0.14643713  0.87294404  1
  O2-  O  1  0.87294404  0.59741005  0.14643713  1
  O2-  O  1  0.14643713  0.87294404  0.59741005  1
  O2-  O  1  0.37294404  0.64643713  0.09741005  1
  O2-  O  1  0.12705596  0.59741005  0.85356287  1
  O2-  O  1  0.62705596  0.64643713  0.90258995  1
  O2-  O  1  0.12705596  0.40258995  0.14643713  1
  O2-  O  1  0.35356287  0.09741005  0.62705596  1
  O2-  O  1  0.09741005  0.62705596  0.35356287  1
  O2-  O  1  0.87294404  0.40258995  0.85356287  1
  O2-  O  1  0.62705596  0.35356287  0.09741005  1
  O2-  O  1  0.64643713  0.90258995  0.62705596  1
  O2-  O  1  0.90258995  0.37294404  0.35356287  1
  O2-  O  1  0.85356287  0.12705596  0.59741005  1
