# generated using pymatgen
data_LiCaCrF6
_symmetry_space_group_name_H-M   'P 1'
_cell_length_a   5.19448254
_cell_length_b   5.19448254
_cell_length_c   9.91370100
_cell_angle_alpha   90.00000000
_cell_angle_beta   90.00000000
_cell_angle_gamma   120.00000000
_symmetry_Int_Tables_number   1
_chemical_formula_structural   LiCaCrF6
_chemical_formula_sum   'Li2 Ca2 Cr2 F12'
_cell_volume   231.65998847
_cell_formula_units_Z   2
loop_
 _symmetry_equiv_pos_site_id
 _symmetry_equiv_pos_as_xyz
  1  'x, y, z'
loop_
 _atom_type_symbol
 _atom_type_oxidation_number
  Li+  1.0
  Ca2+  2.0
  Cr3+  3.0
  F-  -1.0
loop_
 _atom_site_type_symbol
 _atom_site_label
 _atom_site_symmetry_multiplicity
 _atom_site_fract_x
 _atom_site_fract_y
 _atom_site_fract_z
 _atom_site_occupancy
  Li+  Li  1  0.33333333  0.66666667  0.25000000  1
  Li+  Li  1  0.66666667  0.33333333  0.75000000  1
  Ca2+  Ca  1  0.00000000  0.00000000  0.00000000  1
  Ca2+  Ca  1  0.00000000  0.00000000  0.50000000  1
  Cr3+  Cr  1  0.66666667  0.33333333  0.25000000  1
  Cr3+  Cr  1  0.33333333  0.66666667  0.75000000  1
  F-  F  1  0.65365733  0.63744367  0.13973200  1
  F-  F  1  0.98378633  0.34634267  0.13973200  1
  F-  F  1  0.34634267  0.98378633  0.63973200  1
  F-  F  1  0.01621367  0.65365733  0.86026800  1
  F-  F  1  0.36255633  0.34634267  0.36026800  1
  F-  F  1  0.98378633  0.63744367  0.36026800  1
  F-  F  1  0.63744367  0.98378633  0.86026800  1
  F-  F  1  0.65365733  0.01621367  0.36026800  1
  F-  F  1  0.01621367  0.36255633  0.63973200  1
  F-  F  1  0.36255633  0.01621367  0.13973200  1
  F-  F  1  0.63744367  0.65365733  0.63973200  1
  F-  F  1  0.34634267  0.36255633  0.86026800  1
