# generated using pymatgen
data_NaLi2PO4
_symmetry_space_group_name_H-M   'P 1'
_cell_length_a   4.99234200
_cell_length_b   6.94566900
_cell_length_c   10.12336800
_cell_angle_alpha   90.00000000
_cell_angle_beta   90.00000000
_cell_angle_gamma   90.00000000
_symmetry_Int_Tables_number   1
_chemical_formula_structural   NaLi2PO4
_chemical_formula_sum   'Na4 Li8 P4 O16'
_cell_volume   351.02935520
_cell_formula_units_Z   4
loop_
 _symmetry_equiv_pos_site_id
 _symmetry_equiv_pos_as_xyz
  1  'x, y, z'
loop_
 _atom_type_symbol
 _atom_type_oxidation_number
  Na+  1.0
  Li+  1.0
  P5+  5.0
  O2-  -2.0
loop_
 _atom_site_type_symbol
 _atom_site_label
 _atom_site_symmetry_multiplicity
 _atom_site_fract_x
 _atom_site_fract_y
 _atom_site_fract_z
 _atom_site_occupancy
  Na+  Na  1  0.23623500  0.75000000  0.88735000  1
  Na+  Na  1  0.26376500  0.75000000  0.38735000  1
  Na+  Na  1  0.76376500  0.25000000  0.11265000  1
  Na+  Na  1  0.73623500  0.25000000  0.61265000  1
  Li+  Li  1  0.79140100  0.50052300  0.34538100  1
  Li+  Li  1  0.29140100  0.00052300  0.15461900  1
  Li+  Li  1  0.70859900  0.99947700  0.84538100  1
  Li+  Li  1  0.20859900  0.49947700  0.65461900  1
  Li+  Li  1  0.70859900  0.50052300  0.84538100  1
  Li+  Li  1  0.20859900  0.00052300  0.65461900  1
  Li+  Li  1  0.79140100  0.99947700  0.34538100  1
  Li+  Li  1  0.29140100  0.49947700  0.15461900  1
  P5+  P  1  0.29788700  0.25000000  0.40218500  1
  P5+  P  1  0.20211300  0.25000000  0.90218500  1
  P5+  P  1  0.70211300  0.75000000  0.59781500  1
  P5+  P  1  0.79788700  0.75000000  0.09781500  1
  O2-  O  1  0.75809800  0.75000000  0.44571700  1
  O2-  O  1  0.32369200  0.43361300  0.83792100  1
  O2-  O  1  0.67630800  0.93361300  0.16207900  1
  O2-  O  1  0.32369200  0.06638700  0.83792100  1
  O2-  O  1  0.60834300  0.25000000  0.38081100  1
  O2-  O  1  0.39165700  0.75000000  0.61918900  1
  O2-  O  1  0.74190200  0.75000000  0.94571700  1
  O2-  O  1  0.17630800  0.43361300  0.33792100  1
  O2-  O  1  0.82369200  0.56638700  0.66207900  1
  O2-  O  1  0.67630800  0.56638700  0.16207900  1
  O2-  O  1  0.89165700  0.25000000  0.88081100  1
  O2-  O  1  0.10834300  0.75000000  0.11918900  1
  O2-  O  1  0.25809800  0.25000000  0.05428300  1
  O2-  O  1  0.24190200  0.25000000  0.55428300  1
  O2-  O  1  0.17630800  0.06638700  0.33792100  1
  O2-  O  1  0.82369200  0.93361300  0.66207900  1
