# generated using pymatgen
data_NaLiSiB3HO8
_symmetry_space_group_name_H-M   'P 1'
_cell_length_a   6.83414200
_cell_length_b   14.01007200
_cell_length_c   7.78592042
_cell_angle_alpha   90.00000000
_cell_angle_beta   124.41344033
_cell_angle_gamma   90.00000000
_symmetry_Int_Tables_number   1
_chemical_formula_structural   NaLiSiB3HO8
_chemical_formula_sum   'Na4 Li4 Si4 B12 H4 O32'
_cell_volume   615.00443060
_cell_formula_units_Z   4
loop_
 _symmetry_equiv_pos_site_id
 _symmetry_equiv_pos_as_xyz
  1  'x, y, z'
loop_
 _atom_type_symbol
 _atom_type_oxidation_number
  Na+  1.0
  Li+  1.0
  Si4+  4.0
  B3+  3.0
  H+  1.0
  O2-  -2.0
loop_
 _atom_site_type_symbol
 _atom_site_label
 _atom_site_symmetry_multiplicity
 _atom_site_fract_x
 _atom_site_fract_y
 _atom_site_fract_z
 _atom_site_occupancy
  Na+  Na  1  0.97488800  0.50810700  0.25653900  1
  Na+  Na  1  0.97488800  0.99189300  0.75653900  1
  Na+  Na  1  0.02511200  0.49189300  0.74346100  1
  Na+  Na  1  0.02511200  0.00810700  0.24346100  1
  Li+  Li  1  0.53883400  0.80098500  0.87320500  1
  Li+  Li  1  0.46116600  0.19901500  0.12679500  1
  Li+  Li  1  0.53883400  0.69901500  0.37320500  1
  Li+  Li  1  0.46116600  0.30098500  0.62679500  1
  Si4+  Si  1  0.04196900  0.75262000  0.20915000  1
  Si4+  Si  1  0.95803100  0.24738000  0.79085000  1
  Si4+  Si  1  0.04196900  0.74738000  0.70915000  1
  Si4+  Si  1  0.95803100  0.25262000  0.29085000  1
  B3+  B  1  0.46318700  0.49297000  0.21588700  1
  B3+  B  1  0.76552500  0.84722800  0.31674100  1
  B3+  B  1  0.53681300  0.99297000  0.28411300  1
  B3+  B  1  0.68276500  0.15099700  0.91565400  1
  B3+  B  1  0.53681300  0.50703000  0.78411300  1
  B3+  B  1  0.23447500  0.34722800  0.18325900  1
  B3+  B  1  0.31723500  0.65099700  0.58434600  1
  B3+  B  1  0.46318700  0.00703000  0.71588700  1
  B3+  B  1  0.23447500  0.15277200  0.68325900  1
  B3+  B  1  0.31723500  0.84900300  0.08434600  1
  B3+  B  1  0.68276500  0.34900300  0.41565400  1
  B3+  B  1  0.76552500  0.65277200  0.81674100  1
  H+  H  1  0.30588500  0.61233400  0.05613200  1
  H+  H  1  0.69411500  0.11233400  0.44386800  1
  H+  H  1  0.69411500  0.38766600  0.94386800  1
  H+  H  1  0.30588500  0.88766600  0.55613200  1
  O2-  O  1  0.72822900  0.21511400  0.79045400  1
  O2-  O  1  0.18735700  0.22250400  0.52035500  1
  O2-  O  1  0.03196500  0.34574900  0.20788200  1
  O2-  O  1  0.68093000  0.45235600  0.35471600  1
  O2-  O  1  0.31907000  0.54764400  0.64528400  1
  O2-  O  1  0.81264300  0.77749600  0.47964500  1
  O2-  O  1  0.46371800  0.58963500  0.16935000  1
  O2-  O  1  0.45525400  0.32495500  0.37972600  1
  O2-  O  1  0.53628200  0.41036500  0.83065000  1
  O2-  O  1  0.87525400  0.15880600  0.13872200  1
  O2-  O  1  0.96803500  0.84574900  0.29211800  1
  O2-  O  1  0.27177100  0.78488600  0.20954600  1
  O2-  O  1  0.12474600  0.65880600  0.36127800  1
  O2-  O  1  0.75135500  0.94675800  0.38156000  1
  O2-  O  1  0.87525400  0.34119400  0.63872200  1
  O2-  O  1  0.96803500  0.65425100  0.79211800  1
  O2-  O  1  0.54474600  0.67504500  0.62027400  1
  O2-  O  1  0.75135500  0.55324200  0.88156000  1
  O2-  O  1  0.68093000  0.04764400  0.85471600  1
  O2-  O  1  0.03196500  0.15425100  0.70788200  1
  O2-  O  1  0.31907000  0.95235600  0.14528400  1
  O2-  O  1  0.12474600  0.84119400  0.86127800  1
  O2-  O  1  0.27177100  0.71511400  0.70954600  1
  O2-  O  1  0.45525400  0.17504500  0.87972600  1
  O2-  O  1  0.18735700  0.27749600  0.02035500  1
  O2-  O  1  0.72822900  0.28488600  0.29045400  1
  O2-  O  1  0.24864500  0.44675800  0.11844000  1
  O2-  O  1  0.53628200  0.08963500  0.33065000  1
  O2-  O  1  0.81264300  0.72250400  0.97964500  1
  O2-  O  1  0.54474600  0.82495500  0.12027400  1
  O2-  O  1  0.24864500  0.05324200  0.61844000  1
  O2-  O  1  0.46371800  0.91036500  0.66935000  1
