# generated using pymatgen
data_BaLi2SiO4
_symmetry_space_group_name_H-M   'P 1'
_cell_length_a   8.18338425
_cell_length_b   8.18338425
_cell_length_c   10.76352500
_cell_angle_alpha   90.00000000
_cell_angle_beta   90.00000000
_cell_angle_gamma   120.00000000
_symmetry_Int_Tables_number   1
_chemical_formula_structural   BaLi2SiO4
_chemical_formula_sum   'Ba6 Li12 Si6 O24'
_cell_volume   624.23920802
_cell_formula_units_Z   6
loop_
 _symmetry_equiv_pos_site_id
 _symmetry_equiv_pos_as_xyz
  1  'x, y, z'
loop_
 _atom_type_symbol
 _atom_type_oxidation_number
  Ba2+  2.0
  Li+  1.0
  Si4+  4.0
  O2-  -2.0
loop_
 _atom_site_type_symbol
 _atom_site_label
 _atom_site_symmetry_multiplicity
 _atom_site_fract_x
 _atom_site_fract_y
 _atom_site_fract_z
 _atom_site_occupancy
  Ba2+  Ba  1  0.00000000  0.56976800  0.22642400  1
  Ba2+  Ba  1  0.00000000  0.43023200  0.72642400  1
  Ba2+  Ba  1  0.43023200  0.00000000  0.72642400  1
  Ba2+  Ba  1  0.56976800  0.56976800  0.72642400  1
  Ba2+  Ba  1  0.43023200  0.43023200  0.22642400  1
  Ba2+  Ba  1  0.56976800  0.00000000  0.22642400  1
  Li+  Li  1  0.00000000  0.77470600  0.57930400  1
  Li+  Li  1  0.00000000  0.26718900  0.44078900  1
  Li+  Li  1  0.22529400  0.22529400  0.57930400  1
  Li+  Li  1  0.73281100  0.73281100  0.44078900  1
  Li+  Li  1  0.00000000  0.22529400  0.07930400  1
  Li+  Li  1  0.73281100  0.00000000  0.94078900  1
  Li+  Li  1  0.77470600  0.77470600  0.07930400  1
  Li+  Li  1  0.22529400  0.00000000  0.07930400  1
  Li+  Li  1  0.26718900  0.26718900  0.94078900  1
  Li+  Li  1  0.00000000  0.73281100  0.94078900  1
  Li+  Li  1  0.26718900  0.00000000  0.44078900  1
  Li+  Li  1  0.77470600  0.00000000  0.57930400  1
  Si4+  Si  1  0.33333333  0.66666667  0.48235900  1
  Si4+  Si  1  0.66666667  0.33333333  0.48235900  1
  Si4+  Si  1  0.00000000  0.00000000  0.81171800  1
  Si4+  Si  1  0.33333333  0.66666667  0.98235900  1
  Si4+  Si  1  0.00000000  0.00000000  0.31171800  1
  Si4+  Si  1  0.66666667  0.33333333  0.98235900  1
  O2-  O  1  0.00000000  0.80721600  0.76509400  1
  O2-  O  1  0.66666667  0.33333333  0.82956000  1
  O2-  O  1  0.19278400  0.00000000  0.26509400  1
  O2-  O  1  0.00000000  0.19278400  0.26509400  1
  O2-  O  1  0.22159000  0.44626000  0.53336800  1
  O2-  O  1  0.44626000  0.22467000  0.03336800  1
  O2-  O  1  0.22159000  0.77533000  0.03336800  1
  O2-  O  1  0.33333333  0.66666667  0.32956000  1
  O2-  O  1  0.00000000  0.00000000  0.46929400  1
  O2-  O  1  0.55374000  0.77841000  0.03336800  1
  O2-  O  1  0.77841000  0.55374000  0.03336800  1
  O2-  O  1  0.22467000  0.77841000  0.53336800  1
  O2-  O  1  0.55374000  0.77533000  0.53336800  1
  O2-  O  1  0.80721600  0.80721600  0.26509400  1
  O2-  O  1  0.77533000  0.55374000  0.53336800  1
  O2-  O  1  0.44626000  0.22159000  0.53336800  1
  O2-  O  1  0.19278400  0.19278400  0.76509400  1
  O2-  O  1  0.77533000  0.22159000  0.03336800  1
  O2-  O  1  0.80721600  0.00000000  0.76509400  1
  O2-  O  1  0.00000000  0.00000000  0.96929400  1
  O2-  O  1  0.22467000  0.44626000  0.03336800  1
  O2-  O  1  0.66666667  0.33333333  0.32956000  1
  O2-  O  1  0.33333333  0.66666667  0.82956000  1
  O2-  O  1  0.77841000  0.22467000  0.53336800  1
