# generated using pymatgen
data_KLi(PO3)2
_symmetry_space_group_name_H-M   'P 1'
_cell_length_a   13.60972115
_cell_length_b   13.71352969
_cell_length_c   11.78709054
_cell_angle_alpha   90.00000000
_cell_angle_beta   90.40753784
_cell_angle_gamma   90.00000000
_symmetry_Int_Tables_number   1
_chemical_formula_structural   KLi(PO3)2
_chemical_formula_sum   'K16 Li16 P32 O96'
_cell_volume   2199.85528163
_cell_formula_units_Z   16
loop_
 _symmetry_equiv_pos_site_id
 _symmetry_equiv_pos_as_xyz
  1  'x, y, z'
loop_
 _atom_type_symbol
 _atom_type_oxidation_number
  K+  1.0
  Li+  1.0
  P5+  5.0
  O2-  -2.0
loop_
 _atom_site_type_symbol
 _atom_site_label
 _atom_site_symmetry_multiplicity
 _atom_site_fract_x
 _atom_site_fract_y
 _atom_site_fract_z
 _atom_site_occupancy
  K+  K0  1  0.65445950  0.12340696  0.04260370  1
  K+  K1  1  0.34554050  0.12340696  0.45739630  1
  K+  K2  1  0.87295923  0.12507294  0.52976981  1
  K+  K3  1  0.34554050  0.87659304  0.95739630  1
  K+  K4  1  0.65445950  0.87659304  0.54260370  1
  K+  K5  1  0.12704077  0.87492706  0.47023019  1
  K+  K6  1  0.12704077  0.12507294  0.97023019  1
  K+  K7  1  0.87295923  0.87492706  0.02976981  1
  K+  K8  1  0.15445950  0.62340696  0.04260370  1
  K+  K9  1  0.84554050  0.62340696  0.45739630  1
  K+  K10  1  0.37295923  0.62507293  0.52976981  1
  K+  K11  1  0.84554050  0.37659304  0.95739630  1
  K+  K12  1  0.15445950  0.37659304  0.54260370  1
  K+  K13  1  0.62704077  0.37492706  0.47023019  1
  K+  K14  1  0.62704077  0.62507293  0.97023019  1
  K+  K15  1  0.37295923  0.37492706  0.02976981  1
  Li+  Li16  1  0.69264550  0.91999288  0.87336898  1
  Li+  Li17  1  0.56939027  0.68729270  0.43539411  1
  Li+  Li18  1  0.43060973  0.68729270  0.06460589  1
  Li+  Li19  1  0.30735450  0.08000712  0.12663102  1
  Li+  Li20  1  0.30735450  0.91999288  0.62663102  1
  Li+  Li21  1  0.69264550  0.08000712  0.37336898  1
  Li+  Li22  1  0.56939027  0.31270730  0.93539411  1
  Li+  Li23  1  0.43060973  0.31270730  0.56460589  1
  Li+  Li24  1  0.19264550  0.41999288  0.87336898  1
  Li+  Li25  1  0.06939027  0.18729270  0.43539411  1
  Li+  Li26  1  0.93060973  0.18729270  0.06460589  1
  Li+  Li27  1  0.80735450  0.58000711  0.12663102  1
  Li+  Li28  1  0.80735450  0.41999288  0.62663102  1
  Li+  Li29  1  0.19264550  0.58000711  0.37336898  1
  Li+  Li30  1  0.06939027  0.81270730  0.93539411  1
  Li+  Li31  1  0.93060973  0.81270730  0.56460589  1
  P5+  P32  1  0.50000000  0.97747746  0.75000000  1
  P5+  P33  1  0.50000000  0.53754642  0.25000000  1
  P5+  P34  1  0.42089338  0.13045613  0.90127854  1
  P5+  P35  1  0.70779810  0.75908567  0.24928180  1
  P5+  P36  1  0.57910662  0.13045613  0.59872146  1
  P5+  P37  1  0.42089338  0.86954387  0.40127854  1
  P5+  P38  1  0.29220190  0.24091433  0.75071820  1
  P5+  P39  1  0.70779810  0.24091433  0.74928180  1
  P5+  P40  1  0.15008365  0.09633090  0.66441622  1
  P5+  P41  1  0.84991635  0.09633090  0.83558378  1
  P5+  P42  1  0.50000000  0.02252254  0.25000000  1
  P5+  P43  1  0.29220190  0.75908567  0.25071820  1
  P5+  P44  1  0.15008365  0.90366910  0.16441622  1
  P5+  P45  1  0.50000000  0.46245358  0.75000000  1
  P5+  P46  1  0.84991635  0.90366910  0.33558378  1
  P5+  P47  1  0.57910662  0.86954387  0.09872146  1
  P5+  P48  1  0.00000000  0.47747746  0.75000000  1
  P5+  P49  1  0.00000000  0.03754642  0.25000000  1
  P5+  P50  1  0.92089338  0.63045613  0.90127854  1
  P5+  P51  1  0.20779810  0.25908567  0.24928180  1
  P5+  P52  1  0.07910662  0.63045613  0.59872146  1
  P5+  P53  1  0.92089338  0.36954387  0.40127854  1
  P5+  P54  1  0.79220190  0.74091433  0.75071820  1
  P5+  P55  1  0.20779810  0.74091433  0.74928180  1
  P5+  P56  1  0.65008365  0.59633090  0.66441622  1
  P5+  P57  1  0.34991635  0.59633090  0.83558378  1
  P5+  P58  1  0.00000000  0.52252254  0.25000000  1
  P5+  P59  1  0.79220190  0.25908567  0.25071820  1
  P5+  P60  1  0.65008365  0.40366910  0.16441622  1
  P5+  P61  1  0.00000000  0.96245358  0.75000000  1
  P5+  P62  1  0.34991635  0.40366910  0.33558378  1
  P5+  P63  1  0.07910662  0.36954387  0.09872146  1
  O2-  O64  1  0.09161088  0.96432545  0.25882367  1
  O2-  O65  1  0.50293274  0.04940410  0.64215890  1
  O2-  O66  1  0.90838912  0.03567455  0.74117633  1
  O2-  O67  1  0.61847082  0.83015609  0.21868136  1
  O2-  O68  1  0.30825395  0.27256587  0.63162412  1
  O2-  O69  1  0.40552116  0.92463938  0.74171003  1
  O2-  O70  1  0.38152918  0.16984391  0.78131864  1
  O2-  O71  1  0.77755818  0.18806738  0.34324548  1
  O2-  O72  1  0.50205115  0.58920182  0.14020536  1
  O2-  O73  1  0.40552116  0.07536062  0.24171003  1
  O2-  O74  1  0.22244182  0.81193262  0.65675452  1
  O2-  O75  1  0.09161088  0.03567455  0.75882367  1
  O2-  O76  1  0.49706726  0.95059590  0.35784110  1
  O2-  O77  1  0.58084699  0.64992856  0.59001113  1
  O2-  O78  1  0.66035578  0.08311861  0.53587077  1
  O2-  O79  1  0.69174605  0.27256587  0.86837588  1
  O2-  O80  1  0.30825395  0.72743413  0.13162412  1
  O2-  O81  1  0.66035578  0.91688139  0.03587077  1
  O2-  O82  1  0.22634485  0.03438058  0.61170589  1
  O2-  O83  1  0.77365515  0.03438058  0.88829411  1
  O2-  O84  1  0.50205115  0.41079818  0.64020536  1
  O2-  O85  1  0.69174605  0.72743413  0.36837588  1
  O2-  O86  1  0.41915301  0.64992856  0.90998887  1
  O2-  O87  1  0.19902276  0.16980941  0.75479008  1
  O2-  O88  1  0.50293274  0.95059590  0.14215890  1
  O2-  O89  1  0.48054073  0.79424790  0.45958317  1
  O2-  O90  1  0.80097724  0.83019059  0.24520992  1
  O2-  O91  1  0.33964422  0.91688139  0.46412923  1
  O2-  O92  1  0.49794885  0.58920182  0.35979464  1
  O2-  O93  1  0.22244182  0.18806738  0.15675452  1
  O2-  O94  1  0.48054073  0.20575210  0.95958317  1
  O2-  O95  1  0.77365515  0.96561942  0.38829411  1
  O2-  O96  1  0.49794885  0.41079818  0.85979464  1
  O2-  O97  1  0.77755818  0.81193262  0.84324548  1
  O2-  O98  1  0.51945927  0.79424790  0.04041683  1
  O2-  O99  1  0.59447884  0.92463938  0.75828997  1
  O2-  O100  1  0.80097724  0.16980941  0.74520992  1
  O2-  O101  1  0.58084699  0.35007144  0.09001113  1
  O2-  O102  1  0.38152918  0.83015609  0.28131864  1
  O2-  O103  1  0.22634485  0.96561942  0.11170589  1
  O2-  O104  1  0.49706726  0.04940410  0.85784110  1
  O2-  O105  1  0.41915301  0.35007144  0.40998887  1
  O2-  O106  1  0.33964422  0.08311861  0.96412923  1
  O2-  O107  1  0.19902276  0.83019059  0.25479008  1
  O2-  O108  1  0.90838912  0.96432545  0.24117633  1
  O2-  O109  1  0.51945927  0.20575210  0.54041683  1
  O2-  O110  1  0.59447884  0.07536062  0.25828997  1
  O2-  O111  1  0.61847082  0.16984391  0.71868136  1
  O2-  O112  1  0.59161088  0.46432545  0.25882367  1
  O2-  O113  1  0.00293274  0.54940410  0.64215890  1
  O2-  O114  1  0.40838912  0.53567455  0.74117633  1
  O2-  O115  1  0.11847082  0.33015609  0.21868136  1
  O2-  O116  1  0.80825395  0.77256587  0.63162412  1
  O2-  O117  1  0.90552116  0.42463938  0.74171003  1
  O2-  O118  1  0.88152918  0.66984391  0.78131864  1
  O2-  O119  1  0.27755818  0.68806738  0.34324548  1
  O2-  O120  1  0.00205115  0.08920182  0.14020536  1
  O2-  O121  1  0.90552116  0.57536062  0.24171003  1
  O2-  O122  1  0.72244182  0.31193262  0.65675452  1
  O2-  O123  1  0.59161088  0.53567455  0.75882367  1
  O2-  O124  1  0.99706727  0.45059590  0.35784110  1
  O2-  O125  1  0.08084699  0.14992856  0.59001113  1
  O2-  O126  1  0.16035578  0.58311861  0.53587077  1
  O2-  O127  1  0.19174605  0.77256587  0.86837588  1
  O2-  O128  1  0.80825395  0.22743413  0.13162412  1
  O2-  O129  1  0.16035578  0.41688139  0.03587077  1
  O2-  O130  1  0.72634485  0.53438058  0.61170589  1
  O2-  O131  1  0.27365515  0.53438058  0.88829411  1
  O2-  O132  1  0.00205115  0.91079818  0.64020536  1
  O2-  O133  1  0.19174605  0.22743413  0.36837588  1
  O2-  O134  1  0.91915301  0.14992856  0.90998887  1
  O2-  O135  1  0.69902276  0.66980941  0.75479008  1
  O2-  O136  1  0.00293274  0.45059590  0.14215890  1
  O2-  O137  1  0.98054073  0.29424790  0.45958317  1
  O2-  O138  1  0.30097724  0.33019059  0.24520992  1
  O2-  O139  1  0.83964422  0.41688139  0.46412923  1
  O2-  O140  1  0.99794885  0.08920182  0.35979464  1
  O2-  O141  1  0.72244182  0.68806738  0.15675452  1
  O2-  O142  1  0.98054073  0.70575210  0.95958317  1
  O2-  O143  1  0.27365515  0.46561942  0.38829411  1
  O2-  O144  1  0.99794885  0.91079818  0.85979464  1
  O2-  O145  1  0.27755818  0.31193262  0.84324548  1
  O2-  O146  1  0.01945927  0.29424790  0.04041683  1
  O2-  O147  1  0.09447884  0.42463938  0.75828997  1
  O2-  O148  1  0.30097724  0.66980941  0.74520992  1
  O2-  O149  1  0.08084699  0.85007144  0.09001113  1
  O2-  O150  1  0.88152918  0.33015609  0.28131864  1
  O2-  O151  1  0.72634485  0.46561942  0.11170589  1
  O2-  O152  1  0.99706727  0.54940410  0.85784110  1
  O2-  O153  1  0.91915301  0.85007144  0.40998887  1
  O2-  O154  1  0.83964422  0.58311861  0.96412923  1
  O2-  O155  1  0.69902276  0.33019059  0.25479008  1
  O2-  O156  1  0.40838912  0.46432545  0.24117633  1
  O2-  O157  1  0.01945927  0.70575210  0.54041683  1
  O2-  O158  1  0.09447884  0.57536062  0.25828997  1
  O2-  O159  1  0.11847082  0.66984391  0.71868136  1
