# generated using pymatgen
data_NaLi3SiO4
_symmetry_space_group_name_H-M   'P 1'
_cell_length_a   10.87457000
_cell_length_b   10.87457000
_cell_length_c   12.73642600
_cell_angle_alpha   90.00000000
_cell_angle_beta   90.00000000
_cell_angle_gamma   90.00000000
_symmetry_Int_Tables_number   1
_chemical_formula_structural   NaLi3SiO4
_chemical_formula_sum   'Na16 Li48 Si16 O64'
_cell_volume   1506.16226609
_cell_formula_units_Z   16
loop_
 _symmetry_equiv_pos_site_id
 _symmetry_equiv_pos_as_xyz
  1  'x, y, z'
loop_
 _atom_type_symbol
 _atom_type_oxidation_number
  Na+  1.0
  Li+  1.0
  Si4+  4.0
  O2-  -2.0
loop_
 _atom_site_type_symbol
 _atom_site_label
 _atom_site_symmetry_multiplicity
 _atom_site_fract_x
 _atom_site_fract_y
 _atom_site_fract_z
 _atom_site_occupancy
  Na+  Na  1  0.27864600  0.73546200  0.72043600  1
  Na+  Na  1  0.22135400  0.76453800  0.22043600  1
  Na+  Na  1  0.23546200  0.22135400  0.77956400  1
  Na+  Na  1  0.22135400  0.26453800  0.02956400  1
  Na+  Na  1  0.73546200  0.22135400  0.97043600  1
  Na+  Na  1  0.76453800  0.27864600  0.47043600  1
  Na+  Na  1  0.26453800  0.27864600  0.27956400  1
  Na+  Na  1  0.27864600  0.23546200  0.52956400  1
  Na+  Na  1  0.77864600  0.23546200  0.22043600  1
  Na+  Na  1  0.72135400  0.26453800  0.72043600  1
  Na+  Na  1  0.73546200  0.72135400  0.27956400  1
  Na+  Na  1  0.72135400  0.76453800  0.52956400  1
  Na+  Na  1  0.23546200  0.72135400  0.47043600  1
  Na+  Na  1  0.26453800  0.77864600  0.97043600  1
  Na+  Na  1  0.76453800  0.77864600  0.77956400  1
  Na+  Na  1  0.77864600  0.73546200  0.02956400  1
  Li+  Li  1  0.15981600  0.53011500  0.31176800  1
  Li+  Li  1  0.34191850  0.97945050  0.31913750  1
  Li+  Li  1  0.15808150  0.02054950  0.43086250  1
  Li+  Li  1  0.36582850  0.50118850  0.19691350  1
  Li+  Li  1  0.47945050  0.15808150  0.18086250  1
  Li+  Li  1  0.65981600  0.53011500  0.43823200  1
  Li+  Li  1  0.96988500  0.65981600  0.18823200  1
  Li+  Li  1  0.03011500  0.34018400  0.18823200  1
  Li+  Li  1  0.96988500  0.15981600  0.06176800  1
  Li+  Li  1  0.49881150  0.86582850  0.44691350  1
  Li+  Li  1  0.65808150  0.02054950  0.31913750  1
  Li+  Li  1  0.84018400  0.46988500  0.31176800  1
  Li+  Li  1  0.52054950  0.84191850  0.18086250  1
  Li+  Li  1  0.03011500  0.84018400  0.06176800  1
  Li+  Li  1  0.49881150  0.36582850  0.80308650  1
  Li+  Li  1  0.13417150  0.99881150  0.69691350  1
  Li+  Li  1  0.97945050  0.15808150  0.56913750  1
  Li+  Li  1  0.34018400  0.46988500  0.43823200  1
  Li+  Li  1  0.52054950  0.34191850  0.06913750  1
  Li+  Li  1  0.34191850  0.47945050  0.93086250  1
  Li+  Li  1  0.36582850  0.00118850  0.05308650  1
  Li+  Li  1  0.00118850  0.13417150  0.30308650  1
  Li+  Li  1  0.50118850  0.13417150  0.44691350  1
  Li+  Li  1  0.63417150  0.99881150  0.05308650  1
  Li+  Li  1  0.65981600  0.03011500  0.81176800  1
  Li+  Li  1  0.84191850  0.47945050  0.81913750  1
  Li+  Li  1  0.65808150  0.52054950  0.93086250  1
  Li+  Li  1  0.86582850  0.00118850  0.69691350  1
  Li+  Li  1  0.97945050  0.65808150  0.68086250  1
  Li+  Li  1  0.15981600  0.03011500  0.93823200  1
  Li+  Li  1  0.46988500  0.15981600  0.68823200  1
  Li+  Li  1  0.53011500  0.84018400  0.68823200  1
  Li+  Li  1  0.46988500  0.65981600  0.56176800  1
  Li+  Li  1  0.99881150  0.36582850  0.94691350  1
  Li+  Li  1  0.15808150  0.52054950  0.81913750  1
  Li+  Li  1  0.34018400  0.96988500  0.81176800  1
  Li+  Li  1  0.02054950  0.34191850  0.68086250  1
  Li+  Li  1  0.53011500  0.34018400  0.56176800  1
  Li+  Li  1  0.99881150  0.86582850  0.30308650  1
  Li+  Li  1  0.63417150  0.49881150  0.19691350  1
  Li+  Li  1  0.47945050  0.65808150  0.06913750  1
  Li+  Li  1  0.84018400  0.96988500  0.93823200  1
  Li+  Li  1  0.02054950  0.84191850  0.56913750  1
  Li+  Li  1  0.84191850  0.97945050  0.43086250  1
  Li+  Li  1  0.86582850  0.50118850  0.55308650  1
  Li+  Li  1  0.50118850  0.63417150  0.80308650  1
  Li+  Li  1  0.00118850  0.63417150  0.94691350  1
  Li+  Li  1  0.13417150  0.49881150  0.55308650  1
  Si4+  Si  1  0.46115550  0.68148150  0.31985550  1
  Si4+  Si  1  0.53884450  0.31851850  0.31985550  1
  Si4+  Si  1  0.18148150  0.03884450  0.18014450  1
  Si4+  Si  1  0.18148150  0.53884450  0.06985550  1
  Si4+  Si  1  0.46115550  0.18148150  0.93014450  1
  Si4+  Si  1  0.03884450  0.31851850  0.43014450  1
  Si4+  Si  1  0.31851850  0.96115550  0.56985550  1
  Si4+  Si  1  0.81851850  0.96115550  0.18014450  1
  Si4+  Si  1  0.96115550  0.18148150  0.81985550  1
  Si4+  Si  1  0.03884450  0.81851850  0.81985550  1
  Si4+  Si  1  0.68148150  0.53884450  0.68014450  1
  Si4+  Si  1  0.68148150  0.03884450  0.56985550  1
  Si4+  Si  1  0.96115550  0.68148150  0.43014450  1
  Si4+  Si  1  0.53884450  0.81851850  0.93014450  1
  Si4+  Si  1  0.81851850  0.46115550  0.06985550  1
  Si4+  Si  1  0.31851850  0.46115550  0.68014450  1
  O2-  O  1  0.32686000  0.58220200  0.05810500  1
  O2-  O  1  0.53861400  0.14776400  0.03828300  1
  O2-  O  1  0.05099600  0.67352700  0.32596100  1
  O2-  O  1  0.14776400  0.96138600  0.28828300  1
  O2-  O  1  0.17352700  0.44900400  0.17403900  1
  O2-  O  1  0.96138600  0.35223600  0.53828300  1
  O2-  O  1  0.33593950  0.59611350  0.32878750  1
  O2-  O  1  0.82647300  0.55099600  0.17403900  1
  O2-  O  1  0.08220200  0.17314000  0.44189500  1
  O2-  O  1  0.44900400  0.32647300  0.42403900  1
  O2-  O  1  0.40388650  0.83593950  0.57878750  1
  O2-  O  1  0.40388650  0.33593950  0.67121250  1
  O2-  O  1  0.16406050  0.40388650  0.42121250  1
  O2-  O  1  0.33593950  0.09611350  0.92121250  1
  O2-  O  1  0.35223600  0.53861400  0.78828300  1
  O2-  O  1  0.94900400  0.32647300  0.32596100  1
  O2-  O  1  0.67314000  0.91779800  0.19189500  1
  O2-  O  1  0.35223600  0.03861400  0.46171700  1
  O2-  O  1  0.55099600  0.67352700  0.42403900  1
  O2-  O  1  0.41779800  0.82686000  0.30810500  1
  O2-  O  1  0.09611350  0.16406050  0.17121250  1
  O2-  O  1  0.17352700  0.94900400  0.07596100  1
  O2-  O  1  0.82647300  0.05099600  0.07596100  1
  O2-  O  1  0.32686000  0.08220200  0.19189500  1
  O2-  O  1  0.17314000  0.91779800  0.55810500  1
  O2-  O  1  0.41779800  0.32686000  0.94189500  1
  O2-  O  1  0.03861400  0.14776400  0.71171700  1
  O2-  O  1  0.58220200  0.17314000  0.30810500  1
  O2-  O  1  0.09611350  0.66406050  0.07878750  1
  O2-  O  1  0.46138600  0.35223600  0.21171700  1
  O2-  O  1  0.16406050  0.90388650  0.82878750  1
  O2-  O  1  0.14776400  0.46138600  0.96171700  1
  O2-  O  1  0.82686000  0.08220200  0.55810500  1
  O2-  O  1  0.03861400  0.64776400  0.53828300  1
  O2-  O  1  0.55099600  0.17352700  0.82596100  1
  O2-  O  1  0.64776400  0.46138600  0.78828300  1
  O2-  O  1  0.67352700  0.94900400  0.67403900  1
  O2-  O  1  0.46138600  0.85223600  0.03828300  1
  O2-  O  1  0.83593950  0.09611350  0.82878750  1
  O2-  O  1  0.32647300  0.05099600  0.67403900  1
  O2-  O  1  0.58220200  0.67314000  0.94189500  1
  O2-  O  1  0.94900400  0.82647300  0.92403900  1
  O2-  O  1  0.90388650  0.33593950  0.07878750  1
  O2-  O  1  0.90388650  0.83593950  0.17121250  1
  O2-  O  1  0.66406050  0.90388650  0.92121250  1
  O2-  O  1  0.83593950  0.59611350  0.42121250  1
  O2-  O  1  0.85223600  0.03861400  0.28828300  1
  O2-  O  1  0.44900400  0.82647300  0.82596100  1
  O2-  O  1  0.17314000  0.41779800  0.69189500  1
  O2-  O  1  0.85223600  0.53861400  0.96171700  1
  O2-  O  1  0.05099600  0.17352700  0.92403900  1
  O2-  O  1  0.91779800  0.32686000  0.80810500  1
  O2-  O  1  0.59611350  0.66406050  0.67121250  1
  O2-  O  1  0.67352700  0.44900400  0.57596100  1
  O2-  O  1  0.32647300  0.55099600  0.57596100  1
  O2-  O  1  0.82686000  0.58220200  0.69189500  1
  O2-  O  1  0.67314000  0.41779800  0.05810500  1
  O2-  O  1  0.91779800  0.82686000  0.44189500  1
  O2-  O  1  0.53861400  0.64776400  0.21171700  1
  O2-  O  1  0.08220200  0.67314000  0.80810500  1
  O2-  O  1  0.59611350  0.16406050  0.57878750  1
  O2-  O  1  0.96138600  0.85223600  0.71171700  1
  O2-  O  1  0.66406050  0.40388650  0.32878750  1
  O2-  O  1  0.64776400  0.96138600  0.46171700  1
