# generated using pymatgen
data_NaLi2BO3
_symmetry_space_group_name_H-M   'P 1'
_cell_length_a   4.97813500
_cell_length_b   12.18007600
_cell_length_c   9.69395096
_cell_angle_alpha   90.00000000
_cell_angle_beta   105.74860347
_cell_angle_gamma   90.00000000
_symmetry_Int_Tables_number   1
_chemical_formula_structural   NaLi2BO3
_chemical_formula_sum   'Na8 Li16 B8 O24'
_cell_volume   565.71932119
_cell_formula_units_Z   8
loop_
 _symmetry_equiv_pos_site_id
 _symmetry_equiv_pos_as_xyz
  1  'x, y, z'
loop_
 _atom_type_symbol
 _atom_type_oxidation_number
  Na+  1.0
  Li+  1.0
  B3+  3.0
  O2-  -2.0
loop_
 _atom_site_type_symbol
 _atom_site_label
 _atom_site_symmetry_multiplicity
 _atom_site_fract_x
 _atom_site_fract_y
 _atom_site_fract_z
 _atom_site_occupancy
  Na+  Na  1  0.65472300  0.11483300  0.39664800  1
  Na+  Na  1  0.97360100  0.80201300  0.17592200  1
  Na+  Na  1  0.02639900  0.30201300  0.32407800  1
  Na+  Na  1  0.65472300  0.38516700  0.89664800  1
  Na+  Na  1  0.02639900  0.19798700  0.82407800  1
  Na+  Na  1  0.34527700  0.61483300  0.10335200  1
  Na+  Na  1  0.34527700  0.88516700  0.60335200  1
  Na+  Na  1  0.97360100  0.69798700  0.67592200  1
  Li+  Li  1  0.24058800  0.99618900  0.97930100  1
  Li+  Li  1  0.77178000  0.65296100  0.35560100  1
  Li+  Li  1  0.18757300  0.35121800  0.05945600  1
  Li+  Li  1  0.81242700  0.85121800  0.44054400  1
  Li+  Li  1  0.47721100  0.89766500  0.20219900  1
  Li+  Li  1  0.52278900  0.39766500  0.29780100  1
  Li+  Li  1  0.24058800  0.50381100  0.47930100  1
  Li+  Li  1  0.75941200  0.00381100  0.02069900  1
  Li+  Li  1  0.22822000  0.15296100  0.14439900  1
  Li+  Li  1  0.52278900  0.10233500  0.79780100  1
  Li+  Li  1  0.77178000  0.84703900  0.85560100  1
  Li+  Li  1  0.18757300  0.14878200  0.55945600  1
  Li+  Li  1  0.47721100  0.60233500  0.70219900  1
  Li+  Li  1  0.22822000  0.34703900  0.64439900  1
  Li+  Li  1  0.75941200  0.49618900  0.52069900  1
  Li+  Li  1  0.81242700  0.64878200  0.94054400  1
  B3+  B  1  0.64053500  0.21147900  0.07633300  1
  B3+  B  1  0.35946500  0.71147900  0.42366700  1
  B3+  B  1  0.64053500  0.28852100  0.57633300  1
  B3+  B  1  0.04744100  0.47816500  0.78070500  1
  B3+  B  1  0.04744100  0.02183500  0.28070500  1
  B3+  B  1  0.95255900  0.97816500  0.71929500  1
  B3+  B  1  0.35946500  0.78852100  0.92366700  1
  B3+  B  1  0.95255900  0.52183500  0.21929500  1
  O2-  O  1  0.13795400  0.50748800  0.65998800  1
  O2-  O  1  0.82846400  0.61185800  0.13873800  1
  O2-  O  1  0.53487300  0.23389600  0.67779900  1
  O2-  O  1  0.10642300  0.75917900  0.94713700  1
  O2-  O  1  0.52112400  0.87327500  0.00304300  1
  O2-  O  1  0.86204600  0.00748800  0.84001200  1
  O2-  O  1  0.17260700  0.46449000  0.19244200  1
  O2-  O  1  0.86204600  0.49251200  0.34001200  1
  O2-  O  1  0.53487300  0.26610400  0.17779900  1
  O2-  O  1  0.17260700  0.03551000  0.69244200  1
  O2-  O  1  0.46512700  0.73389600  0.82220100  1
  O2-  O  1  0.47887600  0.12672500  0.99695700  1
  O2-  O  1  0.52112400  0.62672500  0.50304300  1
  O2-  O  1  0.89357700  0.25917900  0.55286300  1
  O2-  O  1  0.46512700  0.76610400  0.32220100  1
  O2-  O  1  0.82846400  0.88814200  0.63873800  1
  O2-  O  1  0.13795400  0.99251200  0.15998800  1
  O2-  O  1  0.10642300  0.74082100  0.44713700  1
  O2-  O  1  0.47887600  0.37327500  0.49695700  1
  O2-  O  1  0.17153600  0.11185800  0.36126200  1
  O2-  O  1  0.82739300  0.96449000  0.30755800  1
  O2-  O  1  0.17153600  0.38814200  0.86126200  1
  O2-  O  1  0.89357700  0.24082100  0.05286300  1
  O2-  O  1  0.82739300  0.53551000  0.80755800  1
