# generated using pymatgen
data_Li3ScF6
_symmetry_space_group_name_H-M   'P 1'
_cell_length_a   8.70114013
_cell_length_b   8.70114013
_cell_length_c   9.35153586
_cell_angle_alpha   90.00000000
_cell_angle_beta   90.00000000
_cell_angle_gamma   120.00000000
_symmetry_Int_Tables_number   1
_chemical_formula_structural   Li3ScF6
_chemical_formula_sum   'Li18 Sc6 F36'
_cell_volume   613.14882548
_cell_formula_units_Z   6
loop_
 _symmetry_equiv_pos_site_id
 _symmetry_equiv_pos_as_xyz
  1  'x, y, z'
loop_
 _atom_type_symbol
 _atom_type_oxidation_number
  Li+  1.0
  Sc3+  3.0
  F-  -1.0
loop_
 _atom_site_type_symbol
 _atom_site_label
 _atom_site_symmetry_multiplicity
 _atom_site_fract_x
 _atom_site_fract_y
 _atom_site_fract_z
 _atom_site_occupancy
  Li+  Li  1  0.34204278  0.35697679  0.46704228  1
  Li+  Li  1  0.69611918  0.00000000  0.75000000  1
  Li+  Li  1  0.69611918  0.69611918  0.25000000  1
  Li+  Li  1  0.98506599  0.64302321  0.03295772  1
  Li+  Li  1  0.65795722  0.64302321  0.53295772  1
  Li+  Li  1  0.34204278  0.98506599  0.96704228  1
  Li+  Li  1  0.64302321  0.65795722  0.96704228  1
  Li+  Li  1  0.30388082  0.30388082  0.75000000  1
  Li+  Li  1  0.00000000  0.69611918  0.75000000  1
  Li+  Li  1  0.30388082  0.00000000  0.25000000  1
  Li+  Li  1  0.01493401  0.35697679  0.96704228  1
  Li+  Li  1  0.35697679  0.01493401  0.53295772  1
  Li+  Li  1  0.01493401  0.65795722  0.46704228  1
  Li+  Li  1  0.65795722  0.01493401  0.03295772  1
  Li+  Li  1  0.98506599  0.34204278  0.53295772  1
  Li+  Li  1  0.64302321  0.98506599  0.46704228  1
  Li+  Li  1  0.00000000  0.30388082  0.25000000  1
  Li+  Li  1  0.35697679  0.34204278  0.03295772  1
  Sc3+  Sc  1  0.66666667  0.33333333  0.75902541  1
  Sc3+  Sc  1  0.66666667  0.33333333  0.25902541  1
  Sc3+  Sc  1  0.00000000  0.00000000  0.50000000  1
  Sc3+  Sc  1  0.33333333  0.66666667  0.74097459  1
  Sc3+  Sc  1  0.00000000  0.00000000  0.00000000  1
  Sc3+  Sc  1  0.33333333  0.66666667  0.24097459  1
  F-  F  1  0.88049251  0.77019658  0.38985525  1
  F-  F  1  0.78676545  0.55611703  0.63705120  1
  F-  F  1  0.44388297  0.23064842  0.63705120  1
  F-  F  1  0.11950749  0.88970407  0.11014475  1
  F-  F  1  0.78676545  0.23064842  0.13705120  1
  F-  F  1  0.88049251  0.11029593  0.88985525  1
  F-  F  1  0.55611703  0.76935158  0.36294880  1
  F-  F  1  0.77019658  0.88970407  0.61014475  1
  F-  F  1  0.56964712  0.10846747  0.87907668  1
  F-  F  1  0.88970407  0.11950749  0.38985525  1
  F-  F  1  0.11029593  0.22980342  0.11014475  1
  F-  F  1  0.76935158  0.21323455  0.63705120  1
  F-  F  1  0.53882035  0.10846747  0.37907668  1
  F-  F  1  0.21323455  0.76935158  0.86294880  1
  F-  F  1  0.89153253  0.46117965  0.87907668  1
  F-  F  1  0.11029593  0.88049251  0.61014475  1
  F-  F  1  0.77019658  0.88049251  0.11014475  1
  F-  F  1  0.44388297  0.21323455  0.13705120  1
  F-  F  1  0.22980342  0.11950749  0.88985525  1
  F-  F  1  0.43035288  0.89153253  0.12092332  1
  F-  F  1  0.22980342  0.11029593  0.38985525  1
  F-  F  1  0.11950749  0.22980342  0.61014475  1
  F-  F  1  0.46117965  0.89153253  0.62092332  1
  F-  F  1  0.89153253  0.43035288  0.37907668  1
  F-  F  1  0.76935158  0.55611703  0.13705120  1
  F-  F  1  0.23064842  0.44388297  0.86294880  1
  F-  F  1  0.10846747  0.56964712  0.62092332  1
  F-  F  1  0.23064842  0.78676545  0.36294880  1
  F-  F  1  0.21323455  0.44388297  0.36294880  1
  F-  F  1  0.10846747  0.53882035  0.12092332  1
  F-  F  1  0.88970407  0.77019658  0.88985525  1
  F-  F  1  0.56964712  0.46117965  0.37907668  1
  F-  F  1  0.53882035  0.43035288  0.87907668  1
  F-  F  1  0.46117965  0.56964712  0.12092332  1
  F-  F  1  0.43035288  0.53882035  0.62092332  1
  F-  F  1  0.55611703  0.78676545  0.86294880  1
