# generated using pymatgen
data_Li3CrF6
_symmetry_space_group_name_H-M   'P 1'
_cell_length_a   14.16445545
_cell_length_b   8.54114270
_cell_length_c   9.89060431
_cell_angle_alpha   90.00000000
_cell_angle_beta   95.66627804
_cell_angle_gamma   90.00000000
_symmetry_Int_Tables_number   1
_chemical_formula_structural   Li3CrF6
_chemical_formula_sum   'Li36 Cr12 F72'
_cell_volume   1190.72496798
_cell_formula_units_Z   12
loop_
 _symmetry_equiv_pos_site_id
 _symmetry_equiv_pos_as_xyz
  1  'x, y, z'
loop_
 _atom_type_symbol
 _atom_type_oxidation_number
  Li+  1.0
  Cr3+  3.0
  F-  -1.0
loop_
 _atom_site_type_symbol
 _atom_site_label
 _atom_site_symmetry_multiplicity
 _atom_site_fract_x
 _atom_site_fract_y
 _atom_site_fract_z
 _atom_site_occupancy
  Li+  Li  1  0.64289957  0.65004039  0.77064634  1
  Li+  Li  1  0.35710043  0.65004039  0.72935366  1
  Li+  Li  1  0.35710043  0.34995961  0.22935366  1
  Li+  Li  1  0.64289957  0.34995961  0.27064634  1
  Li+  Li  1  0.51993079  0.15256882  0.03168391  1
  Li+  Li  1  0.48006921  0.15256882  0.46831609  1
  Li+  Li  1  0.33201354  0.79980743  0.45225123  1
  Li+  Li  1  0.66798646  0.79980743  0.04774877  1
  Li+  Li  1  0.66798646  0.20019257  0.54774877  1
  Li+  Li  1  0.33201354  0.20019257  0.95225123  1
  Li+  Li  1  0.79799359  0.14312243  0.06682033  1
  Li+  Li  1  0.20200641  0.14312243  0.43317967  1
  Li+  Li  1  0.20200641  0.85687757  0.93317967  1
  Li+  Li  1  0.79799359  0.85687757  0.56682033  1
  Li+  Li  1  0.50000000  0.31445280  0.75000000  1
  Li+  Li  1  0.50000000  0.68554720  0.25000000  1
  Li+  Li  1  0.48006921  0.84743118  0.96831609  1
  Li+  Li  1  0.51993079  0.84743118  0.53168391  1
  Li+  Li  1  0.14289957  0.15004039  0.77064634  1
  Li+  Li  1  0.85710043  0.15004039  0.72935366  1
  Li+  Li  1  0.85710043  0.84995961  0.22935366  1
  Li+  Li  1  0.14289957  0.84995961  0.27064634  1
  Li+  Li  1  0.01993079  0.65256882  0.03168391  1
  Li+  Li  1  0.98006921  0.65256882  0.46831609  1
  Li+  Li  1  0.83201354  0.29980743  0.45225123  1
  Li+  Li  1  0.16798646  0.29980743  0.04774877  1
  Li+  Li  1  0.16798646  0.70019257  0.54774877  1
  Li+  Li  1  0.83201354  0.70019257  0.95225123  1
  Li+  Li  1  0.29799359  0.64312243  0.06682033  1
  Li+  Li  1  0.70200642  0.64312243  0.43317967  1
  Li+  Li  1  0.70200642  0.35687757  0.93317967  1
  Li+  Li  1  0.29799359  0.35687757  0.56682033  1
  Li+  Li  1  0.00000000  0.81445280  0.75000000  1
  Li+  Li  1  0.00000000  0.18554720  0.25000000  1
  Li+  Li  1  0.98006921  0.34743118  0.96831609  1
  Li+  Li  1  0.01993079  0.34743118  0.53168391  1
  Cr3+  Cr  1  0.33784049  0.99775586  0.20818675  1
  Cr3+  Cr  1  0.66215951  0.99775586  0.29181325  1
  Cr3+  Cr  1  0.66215951  0.00224414  0.79181325  1
  Cr3+  Cr  1  0.33784049  0.00224414  0.70818675  1
  Cr3+  Cr  1  0.00000000  0.00000000  0.50000000  1
  Cr3+  Cr  1  0.00000000  0.00000000  0.00000000  1
  Cr3+  Cr  1  0.83784049  0.49775586  0.20818675  1
  Cr3+  Cr  1  0.16215951  0.49775586  0.29181325  1
  Cr3+  Cr  1  0.16215951  0.50224414  0.79181325  1
  Cr3+  Cr  1  0.83784049  0.50224414  0.70818675  1
  Cr3+  Cr  1  0.50000000  0.50000000  0.50000000  1
  Cr3+  Cr  1  0.50000000  0.50000000  0.00000000  1
  F-  F  1  0.59621868  0.16052415  0.19187287  1
  F-  F  1  0.74906146  0.02164866  0.65387932  1
  F-  F  1  0.74906146  0.97835134  0.15387932  1
  F-  F  1  0.25093854  0.97835134  0.34612068  1
  F-  F  1  0.57808477  0.66330748  0.93714466  1
  F-  F  1  0.42191523  0.66330748  0.56285534  1
  F-  F  1  0.42191523  0.33669252  0.06285534  1
  F-  F  1  0.57808477  0.33669252  0.43714466  1
  F-  F  1  0.25093854  0.02164866  0.84612068  1
  F-  F  1  0.57299327  0.66752935  0.43357487  1
  F-  F  1  0.57299327  0.33247065  0.93357487  1
  F-  F  1  0.42700673  0.33247065  0.56642513  1
  F-  F  1  0.40378132  0.16052415  0.30812713  1
  F-  F  1  0.58129719  0.98996094  0.93591210  1
  F-  F  1  0.58129719  0.01003906  0.43591210  1
  F-  F  1  0.41870281  0.01003906  0.06408790  1
  F-  F  1  0.25880742  0.15783541  0.61150903  1
  F-  F  1  0.74119258  0.15783541  0.88849097  1
  F-  F  1  0.74119258  0.84216459  0.38849097  1
  F-  F  1  0.25880742  0.84216459  0.11150903  1
  F-  F  1  0.07441137  0.00628232  0.17050847  1
  F-  F  1  0.92558863  0.00628232  0.32949153  1
  F-  F  1  0.92558863  0.99371768  0.82949153  1
  F-  F  1  0.07441137  0.99371768  0.67050847  1
  F-  F  1  0.40378132  0.83947585  0.80812713  1
  F-  F  1  0.59621868  0.83947585  0.69187287  1
  F-  F  1  0.73325576  0.16302449  0.38471452  1
  F-  F  1  0.41870281  0.98996094  0.56408790  1
  F-  F  1  0.26674424  0.83697551  0.61528548  1
  F-  F  1  0.73325576  0.83697551  0.88471452  1
  F-  F  1  0.58971556  0.16074306  0.69172947  1
  F-  F  1  0.41028444  0.16074306  0.80827053  1
  F-  F  1  0.41028444  0.83925694  0.30827053  1
  F-  F  1  0.58971556  0.83925694  0.19172947  1
  F-  F  1  0.42700673  0.66752935  0.06642513  1
  F-  F  1  0.26674424  0.16302449  0.11528548  1
  F-  F  1  0.09621868  0.66052415  0.19187287  1
  F-  F  1  0.24906146  0.52164866  0.65387932  1
  F-  F  1  0.24906146  0.47835134  0.15387932  1
  F-  F  1  0.75093854  0.47835134  0.34612068  1
  F-  F  1  0.07808477  0.16330748  0.93714466  1
  F-  F  1  0.92191523  0.16330748  0.56285534  1
  F-  F  1  0.92191523  0.83669252  0.06285534  1
  F-  F  1  0.07808477  0.83669252  0.43714466  1
  F-  F  1  0.75093854  0.52164866  0.84612068  1
  F-  F  1  0.07299327  0.16752935  0.43357487  1
  F-  F  1  0.07299327  0.83247065  0.93357487  1
  F-  F  1  0.92700673  0.83247065  0.56642513  1
  F-  F  1  0.90378132  0.66052415  0.30812713  1
  F-  F  1  0.08129719  0.48996094  0.93591210  1
  F-  F  1  0.08129719  0.51003906  0.43591210  1
  F-  F  1  0.91870282  0.51003906  0.06408790  1
  F-  F  1  0.75880743  0.65783542  0.61150903  1
  F-  F  1  0.24119258  0.65783542  0.88849097  1
  F-  F  1  0.24119258  0.34216459  0.38849097  1
  F-  F  1  0.75880743  0.34216459  0.11150903  1
  F-  F  1  0.57441137  0.50628232  0.17050847  1
  F-  F  1  0.42558863  0.50628232  0.32949153  1
  F-  F  1  0.42558863  0.49371768  0.82949153  1
  F-  F  1  0.57441137  0.49371768  0.67050847  1
  F-  F  1  0.90378132  0.33947585  0.80812713  1
  F-  F  1  0.09621868  0.33947585  0.69187287  1
  F-  F  1  0.23325576  0.66302449  0.38471452  1
  F-  F  1  0.91870282  0.48996094  0.56408790  1
  F-  F  1  0.76674424  0.33697551  0.61528548  1
  F-  F  1  0.23325576  0.33697551  0.88471452  1
  F-  F  1  0.08971556  0.66074306  0.69172947  1
  F-  F  1  0.91028443  0.66074306  0.80827053  1
  F-  F  1  0.91028443  0.33925694  0.30827053  1
  F-  F  1  0.08971556  0.33925694  0.19172947  1
  F-  F  1  0.92700673  0.16752935  0.06642513  1
  F-  F  1  0.76674424  0.66302449  0.11528548  1
