# generated using pymatgen
data_LiCaAlF6
_symmetry_space_group_name_H-M   'P 1'
_cell_length_a   5.08317862
_cell_length_b   5.08317862
_cell_length_c   9.74955500
_cell_angle_alpha   90.00000000
_cell_angle_beta   90.00000000
_cell_angle_gamma   120.00000000
_symmetry_Int_Tables_number   1
_chemical_formula_structural   LiCaAlF6
_chemical_formula_sum   'Li2 Ca2 Al2 F12'
_cell_volume   218.16554714
_cell_formula_units_Z   2
loop_
 _symmetry_equiv_pos_site_id
 _symmetry_equiv_pos_as_xyz
  1  'x, y, z'
loop_
 _atom_type_symbol
 _atom_type_oxidation_number
  Li+  1.0
  Ca2+  2.0
  Al3+  3.0
  F-  -1.0
loop_
 _atom_site_type_symbol
 _atom_site_label
 _atom_site_symmetry_multiplicity
 _atom_site_fract_x
 _atom_site_fract_y
 _atom_site_fract_z
 _atom_site_occupancy
  Li+  Li  1  0.33333333  0.66666667  0.25000000  1
  Li+  Li  1  0.66666667  0.33333333  0.75000000  1
  Ca2+  Ca  1  0.00000000  0.00000000  0.00000000  1
  Ca2+  Ca  1  0.00000000  0.00000000  0.50000000  1
  Al3+  Al  1  0.66666667  0.33333333  0.25000000  1
  Al3+  Al  1  0.33333333  0.66666667  0.75000000  1
  F-  F  1  0.37581833  0.03132367  0.14312900  1
  F-  F  1  0.62418167  0.65550533  0.64312900  1
  F-  F  1  0.34449467  0.96867633  0.64312900  1
  F-  F  1  0.03132367  0.37581833  0.64312900  1
  F-  F  1  0.96867633  0.62418167  0.35687100  1
  F-  F  1  0.96867633  0.34449467  0.14312900  1
  F-  F  1  0.65550533  0.62418167  0.14312900  1
  F-  F  1  0.65550533  0.03132367  0.35687100  1
  F-  F  1  0.03132367  0.65550533  0.85687100  1
  F-  F  1  0.37581833  0.34449467  0.35687100  1
  F-  F  1  0.62418167  0.96867633  0.85687100  1
  F-  F  1  0.34449467  0.37581833  0.85687100  1
