# generated using pymatgen
data_KLi3Ca7Ti2Si12(O18F)2
_symmetry_space_group_name_H-M   'P 1'
_cell_length_a   16.94822063
_cell_length_b   9.74916020
_cell_length_c   20.87636967
_cell_angle_alpha   90.00000000
_cell_angle_beta   112.54072803
_cell_angle_gamma   90.00000000
_symmetry_Int_Tables_number   1
_chemical_formula_structural   KLi3Ca7Ti2Si12(O18F)2
_chemical_formula_sum   'K4 Li12 Ca28 Ti8 Si48 O144 F8'
_cell_volume   3185.91099420
_cell_formula_units_Z   4
loop_
 _symmetry_equiv_pos_site_id
 _symmetry_equiv_pos_as_xyz
  1  'x, y, z'
loop_
 _atom_type_symbol
 _atom_type_oxidation_number
  K+  1.0
  Li+  1.0
  Ca2+  2.0
  Ti4+  4.0
  Si4+  4.0
  O2-  -2.0
  F-  -1.0
loop_
 _atom_site_type_symbol
 _atom_site_label
 _atom_site_symmetry_multiplicity
 _atom_site_fract_x
 _atom_site_fract_y
 _atom_site_fract_z
 _atom_site_occupancy
  K+  K  1  0.50000000  0.57105516  0.25000000  1
  K+  K  1  0.50000000  0.42894484  0.75000000  1
  K+  K  1  0.00000000  0.07105516  0.25000000  1
  K+  K  1  0.00000000  0.92894484  0.75000000  1
  Li+  Li  1  0.24622224  0.31767861  0.24885595  1
  Li+  Li  1  0.25377776  0.81767861  0.25114405  1
  Li+  Li  1  0.50000000  0.08378539  0.25000000  1
  Li+  Li  1  0.74622224  0.18232139  0.74885595  1
  Li+  Li  1  0.75377776  0.68232139  0.75114405  1
  Li+  Li  1  0.50000000  0.91621461  0.75000000  1
  Li+  Li  1  0.74622224  0.81767861  0.24885595  1
  Li+  Li  1  0.75377776  0.31767861  0.25114405  1
  Li+  Li  1  0.00000000  0.58378539  0.25000000  1
  Li+  Li  1  0.24622224  0.68232139  0.74885595  1
  Li+  Li  1  0.25377776  0.18232139  0.75114405  1
  Li+  Li  1  0.00000000  0.41621461  0.75000000  1
  Ca2+  Ca  1  0.42728454  0.13739356  0.00001857  1
  Ca2+  Ca  1  0.42728454  0.86260644  0.50001857  1
  Ca2+  Ca  1  0.85495460  0.28365350  0.99342004  1
  Ca2+  Ca  1  0.27967299  0.57300428  0.48709426  1
  Ca2+  Ca  1  0.22032701  0.07300428  0.01290574  1
  Ca2+  Ca  1  0.57271546  0.86260644  0.99998143  1
  Ca2+  Ca  1  0.00000000  0.00000000  0.00000000  1
  Ca2+  Ca  1  0.14504540  0.71634650  0.00657996  1
  Ca2+  Ca  1  0.35495460  0.21634650  0.49342004  1
  Ca2+  Ca  1  0.57271546  0.13739356  0.49998143  1
  Ca2+  Ca  1  0.77967299  0.92699572  0.98709426  1
  Ca2+  Ca  1  0.72032701  0.42699572  0.51290574  1
  Ca2+  Ca  1  0.50000000  0.50000000  0.50000000  1
  Ca2+  Ca  1  0.64504540  0.78365350  0.50657996  1
  Ca2+  Ca  1  0.92728454  0.63739356  0.00001857  1
  Ca2+  Ca  1  0.92728454  0.36260644  0.50001857  1
  Ca2+  Ca  1  0.35495460  0.78365350  0.99342004  1
  Ca2+  Ca  1  0.77967299  0.07300428  0.48709426  1
  Ca2+  Ca  1  0.72032701  0.57300428  0.01290574  1
  Ca2+  Ca  1  0.07271546  0.36260644  0.99998143  1
  Ca2+  Ca  1  0.50000000  0.50000000  0.00000000  1
  Ca2+  Ca  1  0.64504540  0.21634650  0.00657996  1
  Ca2+  Ca  1  0.85495460  0.71634650  0.49342004  1
  Ca2+  Ca  1  0.07271546  0.63739356  0.49998143  1
  Ca2+  Ca  1  0.27967299  0.42699572  0.98709426  1
  Ca2+  Ca  1  0.22032701  0.92699572  0.51290574  1
  Ca2+  Ca  1  0.00000000  0.00000000  0.50000000  1
  Ca2+  Ca  1  0.14504540  0.28365350  0.50657996  1
  Ti4+  Ti  1  0.66545435  0.92963640  0.74826369  1
  Ti4+  Ti  1  0.83454565  0.42963640  0.75173631  1
  Ti4+  Ti  1  0.33454565  0.07036360  0.25173631  1
  Ti4+  Ti  1  0.16545435  0.57036360  0.24826369  1
  Ti4+  Ti  1  0.16545435  0.42963640  0.74826369  1
  Ti4+  Ti  1  0.33454565  0.92963640  0.75173631  1
  Ti4+  Ti  1  0.83454565  0.57036360  0.25173631  1
  Ti4+  Ti  1  0.66545435  0.07036360  0.24826369  1
  Si4+  Si  1  0.61383723  0.26528052  0.36044628  1
  Si4+  Si  1  0.56910854  0.32339789  0.13973633  1
  Si4+  Si  1  0.13094256  0.13610581  0.14016429  1
  Si4+  Si  1  0.76146632  0.99254101  0.63790413  1
  Si4+  Si  1  0.86905744  0.86389419  0.85983571  1
  Si4+  Si  1  0.43089146  0.67660211  0.86026367  1
  Si4+  Si  1  0.38616277  0.73471948  0.63955372  1
  Si4+  Si  1  0.36905744  0.63610582  0.35983571  1
  Si4+  Si  1  0.67419940  0.18504367  0.85927684  1
  Si4+  Si  1  0.50860351  0.88013031  0.13960860  1
  Si4+  Si  1  0.23853368  0.00745899  0.36209587  1
  Si4+  Si  1  0.73853368  0.49254101  0.86209587  1
  Si4+  Si  1  0.32580060  0.18504367  0.64072316  1
  Si4+  Si  1  0.49139649  0.88013031  0.36039140  1
  Si4+  Si  1  0.67419940  0.81495633  0.35927684  1
  Si4+  Si  1  0.43089146  0.32339789  0.36026367  1
  Si4+  Si  1  0.26146632  0.50745899  0.13790413  1
  Si4+  Si  1  0.38616277  0.26528052  0.13955372  1
  Si4+  Si  1  0.63094256  0.36389419  0.64016429  1
  Si4+  Si  1  0.56910854  0.67660211  0.63973633  1
  Si4+  Si  1  0.49139649  0.11986969  0.86039140  1
  Si4+  Si  1  0.50860351  0.11986969  0.63960860  1
  Si4+  Si  1  0.32580060  0.81495633  0.14072316  1
  Si4+  Si  1  0.61383723  0.73471948  0.86044628  1
  Si4+  Si  1  0.11383723  0.76528052  0.36044628  1
  Si4+  Si  1  0.06910854  0.82339789  0.13973633  1
  Si4+  Si  1  0.63094256  0.63610582  0.14016429  1
  Si4+  Si  1  0.26146632  0.49254101  0.63790413  1
  Si4+  Si  1  0.36905744  0.36389419  0.85983571  1
  Si4+  Si  1  0.93089146  0.17660211  0.86026367  1
  Si4+  Si  1  0.88616277  0.23471948  0.63955372  1
  Si4+  Si  1  0.86905744  0.13610582  0.35983571  1
  Si4+  Si  1  0.17419940  0.68504367  0.85927684  1
  Si4+  Si  1  0.00860351  0.38013031  0.13960860  1
  Si4+  Si  1  0.73853368  0.50745899  0.36209587  1
  Si4+  Si  1  0.23853368  0.99254101  0.86209587  1
  Si4+  Si  1  0.82580060  0.68504367  0.64072316  1
  Si4+  Si  1  0.99139649  0.38013031  0.36039140  1
  Si4+  Si  1  0.17419940  0.31495633  0.35927684  1
  Si4+  Si  1  0.93089146  0.82339789  0.36026367  1
  Si4+  Si  1  0.76146632  0.00745899  0.13790413  1
  Si4+  Si  1  0.88616277  0.76528052  0.13955372  1
  Si4+  Si  1  0.13094256  0.86389418  0.64016429  1
  Si4+  Si  1  0.06910854  0.17660211  0.63973633  1
  Si4+  Si  1  0.99139649  0.61986969  0.86039140  1
  Si4+  Si  1  0.00860351  0.61986969  0.63960860  1
  Si4+  Si  1  0.82580060  0.31495633  0.14072316  1
  Si4+  Si  1  0.11383723  0.23471948  0.86044628  1
  O2-  O  1  0.57319340  0.74929603  0.15952590  1
  O2-  O  1  0.35235024  0.24004596  0.30578478  1
  O2-  O  1  0.65846323  0.40198861  0.34485457  1
  O2-  O  1  0.19907191  0.49882505  0.05670124  1
  O2-  O  1  0.12120809  0.15220686  0.06050276  1
  O2-  O  1  0.65978150  0.22372444  0.44146146  1
  O2-  O  1  0.65846323  0.59801139  0.84485457  1
  O2-  O  1  0.71377734  0.02485444  0.68949079  1
  O2-  O  1  0.95310059  0.21812575  0.94028412  1
  O2-  O  1  0.80092809  0.50117495  0.94329876  1
  O2-  O  1  0.65978150  0.77627556  0.94146146  1
  O2-  O  1  0.44903265  0.99474629  0.80859166  1
  O2-  O  1  0.57298281  0.17922063  0.84544500  1
  O2-  O  1  0.61254094  0.14364668  0.30831670  1
  O2-  O  1  0.14764976  0.74004596  0.19421522  1
  O2-  O  1  0.37879191  0.65220686  0.43949724  1
  O2-  O  1  0.08918344  0.98849307  0.14714350  1
  O2-  O  1  0.52107959  0.07968124  0.94169411  1
  O2-  O  1  0.45310059  0.28187425  0.44028412  1
  O2-  O  1  0.58918344  0.51150693  0.64714350  1
  O2-  O  1  0.69576105  0.09336723  0.80440144  1
  O2-  O  1  0.52107959  0.92031876  0.44169411  1
  O2-  O  1  0.55096735  0.99474629  0.69140834  1
  O2-  O  1  0.34153677  0.40198861  0.15514543  1
  O2-  O  1  0.42701719  0.17922063  0.65455500  1
  O2-  O  1  0.57319340  0.25070397  0.65952590  1
  O2-  O  1  0.72642199  0.34649903  0.69570260  1
  O2-  O  1  0.44903265  0.00525371  0.30859166  1
  O2-  O  1  0.22642199  0.15350097  0.19570260  1
  O2-  O  1  0.69273262  0.34301804  0.84419937  1
  O2-  O  1  0.42701719  0.82077937  0.15455500  1
  O2-  O  1  0.62120809  0.34779314  0.56050276  1
  O2-  O  1  0.34021850  0.77627556  0.55853854  1
  O2-  O  1  0.30423895  0.90663277  0.19559856  1
  O2-  O  1  0.47892041  0.92031876  0.05830589  1
  O2-  O  1  0.54689941  0.71812575  0.55971588  1
  O2-  O  1  0.72923528  0.14695509  0.93941070  1
  O2-  O  1  0.22923528  0.35304491  0.43941070  1
  O2-  O  1  0.77357801  0.84649903  0.80429740  1
  O2-  O  1  0.30092809  0.99882505  0.44329876  1
  O2-  O  1  0.21377734  0.47514556  0.18949079  1
  O2-  O  1  0.28622266  0.97514556  0.31050921  1
  O2-  O  1  0.78622266  0.52485444  0.81050921  1
  O2-  O  1  0.04689941  0.78187425  0.05971588  1
  O2-  O  1  0.38745906  0.85635332  0.69168330  1
  O2-  O  1  0.51444595  0.69056448  0.84038301  1
  O2-  O  1  0.34021850  0.22372444  0.05853854  1
  O2-  O  1  0.48555405  0.30943552  0.15961699  1
  O2-  O  1  0.34153677  0.59801139  0.65514543  1
  O2-  O  1  0.41081656  0.48849307  0.35285650  1
  O2-  O  1  0.77076472  0.64695509  0.56058930  1
  O2-  O  1  0.80726738  0.84301804  0.65580063  1
  O2-  O  1  0.27076472  0.85304491  0.06058930  1
  O2-  O  1  0.55096735  0.00525371  0.19140834  1
  O2-  O  1  0.27357801  0.65350097  0.30429740  1
  O2-  O  1  0.42680660  0.74929603  0.34047410  1
  O2-  O  1  0.51444595  0.30943552  0.34038301  1
  O2-  O  1  0.80423895  0.59336723  0.69559856  1
  O2-  O  1  0.57298281  0.82077937  0.34544500  1
  O2-  O  1  0.69907191  0.00117495  0.55670124  1
  O2-  O  1  0.48555405  0.69056448  0.65961699  1
  O2-  O  1  0.47892041  0.07968124  0.55830589  1
  O2-  O  1  0.61254094  0.85635332  0.80831670  1
  O2-  O  1  0.38745906  0.14364668  0.19168330  1
  O2-  O  1  0.91081656  0.01150693  0.85285650  1
  O2-  O  1  0.64764976  0.75995404  0.69421522  1
  O2-  O  1  0.42680660  0.25070397  0.84047410  1
  O2-  O  1  0.85235024  0.25995404  0.80578478  1
  O2-  O  1  0.87879191  0.84779314  0.93949724  1
  O2-  O  1  0.30726738  0.65698196  0.15580063  1
  O2-  O  1  0.19576105  0.40663277  0.30440144  1
  O2-  O  1  0.19273262  0.15698196  0.34419937  1
  O2-  O  1  0.07319340  0.24929603  0.15952590  1
  O2-  O  1  0.85235024  0.74004596  0.30578478  1
  O2-  O  1  0.15846323  0.90198861  0.34485457  1
  O2-  O  1  0.69907191  0.99882505  0.05670124  1
  O2-  O  1  0.62120809  0.65220686  0.06050276  1
  O2-  O  1  0.15978150  0.72372444  0.44146146  1
  O2-  O  1  0.15846323  0.09801139  0.84485457  1
  O2-  O  1  0.21377734  0.52485444  0.68949079  1
  O2-  O  1  0.45310059  0.71812575  0.94028412  1
  O2-  O  1  0.30092809  0.00117495  0.94329876  1
  O2-  O  1  0.15978150  0.27627556  0.94146146  1
  O2-  O  1  0.94903264  0.49474629  0.80859166  1
  O2-  O  1  0.07298281  0.67922063  0.84544500  1
  O2-  O  1  0.11254094  0.64364668  0.30831670  1
  O2-  O  1  0.64764976  0.24004596  0.19421522  1
  O2-  O  1  0.87879191  0.15220686  0.43949724  1
  O2-  O  1  0.58918344  0.48849307  0.14714350  1
  O2-  O  1  0.02107959  0.57968124  0.94169411  1
  O2-  O  1  0.95310059  0.78187425  0.44028412  1
  O2-  O  1  0.08918344  0.01150693  0.64714350  1
  O2-  O  1  0.19576105  0.59336723  0.80440144  1
  O2-  O  1  0.02107959  0.42031876  0.44169411  1
  O2-  O  1  0.05096735  0.49474629  0.69140834  1
  O2-  O  1  0.84153677  0.90198861  0.15514543  1
  O2-  O  1  0.92701719  0.67922063  0.65455500  1
  O2-  O  1  0.07319340  0.75070397  0.65952590  1
  O2-  O  1  0.22642199  0.84649903  0.69570260  1
  O2-  O  1  0.94903264  0.50525371  0.30859166  1
  O2-  O  1  0.72642199  0.65350097  0.19570260  1
  O2-  O  1  0.19273262  0.84301804  0.84419937  1
  O2-  O  1  0.92701719  0.32077937  0.15455500  1
  O2-  O  1  0.12120809  0.84779314  0.56050276  1
  O2-  O  1  0.84021850  0.27627556  0.55853854  1
  O2-  O  1  0.80423895  0.40663277  0.19559856  1
  O2-  O  1  0.97892041  0.42031876  0.05830589  1
  O2-  O  1  0.04689941  0.21812575  0.55971588  1
  O2-  O  1  0.22923528  0.64695509  0.93941070  1
  O2-  O  1  0.72923528  0.85304491  0.43941070  1
  O2-  O  1  0.27357801  0.34649903  0.80429740  1
  O2-  O  1  0.80092809  0.49882505  0.44329876  1
  O2-  O  1  0.71377734  0.97514556  0.18949079  1
  O2-  O  1  0.78622266  0.47514556  0.31050921  1
  O2-  O  1  0.28622266  0.02485444  0.81050921  1
  O2-  O  1  0.54689941  0.28187425  0.05971588  1
  O2-  O  1  0.88745906  0.35635332  0.69168330  1
  O2-  O  1  0.01444595  0.19056448  0.84038301  1
  O2-  O  1  0.84021850  0.72372444  0.05853854  1
  O2-  O  1  0.98555405  0.80943552  0.15961699  1
  O2-  O  1  0.84153677  0.09801139  0.65514543  1
  O2-  O  1  0.91081656  0.98849307  0.35285650  1
  O2-  O  1  0.27076472  0.14695509  0.56058930  1
  O2-  O  1  0.30726738  0.34301804  0.65580063  1
  O2-  O  1  0.77076472  0.35304491  0.06058930  1
  O2-  O  1  0.05096735  0.50525371  0.19140834  1
  O2-  O  1  0.77357801  0.15350097  0.30429740  1
  O2-  O  1  0.92680660  0.24929603  0.34047410  1
  O2-  O  1  0.01444595  0.80943552  0.34038301  1
  O2-  O  1  0.30423895  0.09336723  0.69559856  1
  O2-  O  1  0.07298281  0.32077937  0.34544500  1
  O2-  O  1  0.19907191  0.50117495  0.55670124  1
  O2-  O  1  0.98555405  0.19056448  0.65961699  1
  O2-  O  1  0.97892041  0.57968124  0.55830589  1
  O2-  O  1  0.11254094  0.35635332  0.80831670  1
  O2-  O  1  0.88745906  0.64364668  0.19168330  1
  O2-  O  1  0.41081656  0.51150693  0.85285650  1
  O2-  O  1  0.14764976  0.25995404  0.69421522  1
  O2-  O  1  0.92680660  0.75070397  0.84047410  1
  O2-  O  1  0.35235024  0.75995404  0.80578478  1
  O2-  O  1  0.37879191  0.34779314  0.93949724  1
  O2-  O  1  0.80726737  0.15698196  0.15580063  1
  O2-  O  1  0.69576105  0.90663277  0.30440144  1
  O2-  O  1  0.69273263  0.65698196  0.34419937  1
  F-  F  1  0.39650450  0.43103267  0.53801385  1
  F-  F  1  0.60349550  0.43103267  0.96198615  1
  F-  F  1  0.39650450  0.56896733  0.03801385  1
  F-  F  1  0.60349550  0.56896733  0.46198615  1
  F-  F  1  0.89650450  0.93103267  0.53801385  1
  F-  F  1  0.10349550  0.93103267  0.96198615  1
  F-  F  1  0.89650450  0.06896733  0.03801385  1
  F-  F  1  0.10349550  0.06896733  0.46198615  1
