# generated using pymatgen
data_Li3In2(PO4)3
_symmetry_space_group_name_H-M   'P 1'
_cell_length_a   8.51039217
_cell_length_b   8.51039217
_cell_length_c   23.23004071
_cell_angle_alpha   90.00000000
_cell_angle_beta   90.00000000
_cell_angle_gamma   120.00000000
_symmetry_Int_Tables_number   1
_chemical_formula_structural   Li3In2(PO4)3
_chemical_formula_sum   'Li18 In12 P18 O72'
_cell_volume   1457.06776083
_cell_formula_units_Z   6
loop_
 _symmetry_equiv_pos_site_id
 _symmetry_equiv_pos_as_xyz
  1  'x, y, z'
loop_
 _atom_type_symbol
 _atom_type_oxidation_number
  Li+  1.0
  In3+  3.0
  P5+  5.0
  O2-  -2.0
loop_
 _atom_site_type_symbol
 _atom_site_label
 _atom_site_symmetry_multiplicity
 _atom_site_fract_x
 _atom_site_fract_y
 _atom_site_fract_z
 _atom_site_occupancy
  Li+  Li  1  0.64112111  0.01876103  0.28643697  1
  Li+  Li  1  0.37763991  0.35887889  0.28643697  1
  Li+  Li  1  0.98123897  0.62236009  0.28643697  1
  Li+  Li  1  0.02554555  0.31457231  0.04689637  1
  Li+  Li  1  0.28902675  0.97445445  0.04689637  1
  Li+  Li  1  0.68542769  0.71097325  0.04689637  1
  Li+  Li  1  0.30778778  0.35209436  0.61977030  1
  Li+  Li  1  0.04430658  0.69221222  0.61977030  1
  Li+  Li  1  0.64790564  0.95569342  0.61977030  1
  Li+  Li  1  0.69221222  0.64790564  0.38022970  1
  Li+  Li  1  0.95569342  0.30778778  0.38022970  1
  Li+  Li  1  0.35209436  0.04430658  0.38022970  1
  Li+  Li  1  0.97445445  0.68542769  0.95310363  1
  Li+  Li  1  0.71097325  0.02554555  0.95310363  1
  Li+  Li  1  0.31457231  0.28902675  0.95310363  1
  Li+  Li  1  0.35887889  0.98123897  0.71356303  1
  Li+  Li  1  0.62236009  0.64112111  0.71356303  1
  Li+  Li  1  0.01876103  0.37763991  0.71356303  1
  In3+  In  1  0.33333333  0.66666667  0.01237592  1
  In3+  In  1  0.33333333  0.66666667  0.32095742  1
  In3+  In  1  0.66666667  0.33333333  0.18733802  1
  In3+  In  1  0.00000000  0.00000000  0.14599531  1
  In3+  In  1  0.00000000  0.00000000  0.34570925  1
  In3+  In  1  0.00000000  0.00000000  0.65429075  1
  In3+  In  1  0.33333333  0.66666667  0.52067136  1
  In3+  In  1  0.66666667  0.33333333  0.47932864  1
  In3+  In  1  0.66666667  0.33333333  0.67904258  1
  In3+  In  1  0.66666667  0.33333333  0.98762408  1
  In3+  In  1  0.00000000  0.00000000  0.85400469  1
  In3+  In  1  0.33333333  0.66666667  0.81266198  1
  P5+  P  1  0.96354226  0.63106192  0.08226863  1
  P5+  P  1  0.66751965  0.03645774  0.08226863  1
  P5+  P  1  0.36893808  0.33248035  0.08226863  1
  P5+  P  1  0.70312440  0.70227142  0.25106471  1
  P5+  P  1  0.99914701  0.29687560  0.25106471  1
  P5+  P  1  0.29772858  0.00085299  0.25106471  1
  P5+  P  1  0.63020893  0.96439525  0.41560196  1
  P5+  P  1  0.33418632  0.36979107  0.41560196  1
  P5+  P  1  0.03560475  0.66581368  0.41560196  1
  P5+  P  1  0.36979107  0.03560475  0.58439804  1
  P5+  P  1  0.66581368  0.63020893  0.58439804  1
  P5+  P  1  0.96439525  0.33418632  0.58439804  1
  P5+  P  1  0.29687560  0.29772858  0.74893529  1
  P5+  P  1  0.00085299  0.70312440  0.74893529  1
  P5+  P  1  0.70227142  0.99914701  0.74893529  1
  P5+  P  1  0.03645774  0.36893808  0.91773137  1
  P5+  P  1  0.33248035  0.96354226  0.91773137  1
  P5+  P  1  0.63106192  0.66751965  0.91773137  1
  O2-  O  1  0.60092632  0.49448076  0.24547304  1
  O2-  O  1  0.89355445  0.39907368  0.24547304  1
  O2-  O  1  0.50551924  0.10644555  0.24547304  1
  O2-  O  1  0.06574035  0.83885257  0.08786029  1
  O2-  O  1  0.20653925  0.00580303  0.19679311  1
  O2-  O  1  0.99419697  0.20073622  0.19679311  1
  O2-  O  1  0.79926378  0.79346075  0.19679311  1
  O2-  O  1  0.46012742  0.32753030  0.13654022  1
  O2-  O  1  0.67246970  0.13259711  0.13654022  1
  O2-  O  1  0.86740289  0.53987258  0.13654022  1
  O2-  O  1  0.41105744  0.23506054  0.03191989  1
  O2-  O  1  0.76493946  0.17599689  0.03191989  1
  O2-  O  1  0.82400311  0.58894256  0.03191989  1
  O2-  O  1  0.25560923  0.09827279  0.30141344  1
  O2-  O  1  0.90172721  0.15733644  0.30141344  1
  O2-  O  1  0.84266356  0.74439077  0.30141344  1
  O2-  O  1  0.23097277  0.80478647  0.27022014  1
  O2-  O  1  0.19521353  0.42618631  0.27022014  1
  O2-  O  1  0.57381369  0.76902723  0.27022014  1
  O2-  O  1  0.43569389  0.52854687  0.06311320  1
  O2-  O  1  0.47145313  0.90714703  0.06311320  1
  O2-  O  1  0.09285297  0.56430611  0.06311320  1
  O2-  O  1  0.16114743  0.22688778  0.08786029  1
  O2-  O  1  0.77311222  0.93425965  0.08786029  1
  O2-  O  1  0.26759298  0.82781410  0.57880638  1
  O2-  O  1  0.56022111  0.73240702  0.57880638  1
  O2-  O  1  0.17218590  0.43977889  0.57880638  1
  O2-  O  1  0.73240702  0.17218590  0.42119362  1
  O2-  O  1  0.87320592  0.33913636  0.53012644  1
  O2-  O  1  0.66086364  0.53406955  0.53012644  1
  O2-  O  1  0.46593045  0.12679408  0.53012644  1
  O2-  O  1  0.12679408  0.66086364  0.46987356  1
  O2-  O  1  0.33913636  0.46593045  0.46987356  1
  O2-  O  1  0.53406955  0.87320592  0.46987356  1
  O2-  O  1  0.07772410  0.56839388  0.36525323  1
  O2-  O  1  0.43160612  0.50933023  0.36525323  1
  O2-  O  1  0.49066977  0.92227590  0.36525323  1
  O2-  O  1  0.92227590  0.43160612  0.63474677  1
  O2-  O  1  0.56839388  0.49066977  0.63474677  1
  O2-  O  1  0.50933023  0.07772410  0.63474677  1
  O2-  O  1  0.89763944  0.13811980  0.60355347  1
  O2-  O  1  0.86188020  0.75951964  0.60355347  1
  O2-  O  1  0.24048036  0.10236056  0.60355347  1
  O2-  O  1  0.10236056  0.86188020  0.39644653  1
  O2-  O  1  0.13811980  0.24048036  0.39644653  1
  O2-  O  1  0.75951964  0.89763944  0.39644653  1
  O2-  O  1  0.82781410  0.56022111  0.42119362  1
  O2-  O  1  0.43977889  0.26759298  0.42119362  1
  O2-  O  1  0.93425965  0.16114743  0.91213971  1
  O2-  O  1  0.22688778  0.06574035  0.91213971  1
  O2-  O  1  0.83885257  0.77311222  0.91213971  1
  O2-  O  1  0.39907368  0.50551924  0.75452696  1
  O2-  O  1  0.53987258  0.67246970  0.86345978  1
  O2-  O  1  0.32753030  0.86740289  0.86345978  1
  O2-  O  1  0.13259711  0.46012742  0.86345978  1
  O2-  O  1  0.79346075  0.99419697  0.80320689  1
  O2-  O  1  0.00580303  0.79926378  0.80320689  1
  O2-  O  1  0.20073622  0.20653925  0.80320689  1
  O2-  O  1  0.74439077  0.90172721  0.69858656  1
  O2-  O  1  0.09827279  0.84266356  0.69858656  1
  O2-  O  1  0.15733644  0.25560923  0.69858656  1
  O2-  O  1  0.58894256  0.76493946  0.96808011  1
  O2-  O  1  0.23506054  0.82400311  0.96808011  1
  O2-  O  1  0.17599689  0.41105744  0.96808011  1
  O2-  O  1  0.56430611  0.47145313  0.93688680  1
  O2-  O  1  0.52854687  0.09285297  0.93688680  1
  O2-  O  1  0.90714703  0.43569389  0.93688680  1
  O2-  O  1  0.76902723  0.19521353  0.72977986  1
  O2-  O  1  0.80478647  0.57381369  0.72977986  1
  O2-  O  1  0.42618631  0.23097277  0.72977986  1
  O2-  O  1  0.49448076  0.89355445  0.75452696  1
  O2-  O  1  0.10644555  0.60092632  0.75452696  1
