# generated using pymatgen
data_LiMg2H7Ru
_symmetry_space_group_name_H-M   'P 1'
_cell_length_a   4.69630164
_cell_length_b   4.69630164
_cell_length_c   10.69942600
_cell_angle_alpha   90.00000000
_cell_angle_beta   90.00000000
_cell_angle_gamma   120.00000000
_symmetry_Int_Tables_number   1
_chemical_formula_structural   LiMg2H7Ru
_chemical_formula_sum   'Li2 Mg4 H14 Ru2'
_cell_volume   204.36338042
_cell_formula_units_Z   2
loop_
 _symmetry_equiv_pos_site_id
 _symmetry_equiv_pos_as_xyz
  1  'x, y, z'
loop_
 _atom_type_symbol
 _atom_type_oxidation_number
  Li+  1.0
  Mg2+  2.0
  H-  -1.0
  Ru2+  2.0
loop_
 _atom_site_type_symbol
 _atom_site_label
 _atom_site_symmetry_multiplicity
 _atom_site_fract_x
 _atom_site_fract_y
 _atom_site_fract_z
 _atom_site_occupancy
  Li+  Li  1  0.00000000  0.00000000  0.75000000  1
  Li+  Li  1  0.00000000  0.00000000  0.25000000  1
  Mg2+  Mg  1  0.66666667  0.33333333  0.92491800  1
  Mg2+  Mg  1  0.33333333  0.66666667  0.07508200  1
  Mg2+  Mg  1  0.33333333  0.66666667  0.42491800  1
  Mg2+  Mg  1  0.66666667  0.33333333  0.57508200  1
  H-  H  1  0.83392500  0.66785000  0.40432100  1
  H-  H  1  0.33215000  0.16607500  0.40432100  1
  H-  H  1  0.83392500  0.16607500  0.40432100  1
  H-  H  1  0.16607500  0.33215000  0.59567900  1
  H-  H  1  0.66785000  0.83392500  0.59567900  1
  H-  H  1  0.16607500  0.83392500  0.59567900  1
  H-  H  1  0.16607500  0.33215000  0.90432100  1
  H-  H  1  0.66785000  0.83392500  0.90432100  1
  H-  H  1  0.16607500  0.83392500  0.90432100  1
  H-  H  1  0.83392500  0.66785000  0.09567900  1
  H-  H  1  0.33215000  0.16607500  0.09567900  1
  H-  H  1  0.83392500  0.16607500  0.09567900  1
  H-  H  1  0.66666667  0.33333333  0.75000000  1
  H-  H  1  0.33333333  0.66666667  0.25000000  1
  Ru2+  Ru  1  0.00000000  0.00000000  0.00000000  1
  Ru2+  Ru  1  0.00000000  0.00000000  0.50000000  1
