# generated using pymatgen
data_Li3Sc2(PO4)3
_symmetry_space_group_name_H-M   'P 1'
_cell_length_a   8.95835600
_cell_length_b   8.91245400
_cell_length_c   15.30894912
_cell_angle_alpha   90.00000000
_cell_angle_beta   125.79146236
_cell_angle_gamma   90.00000000
_symmetry_Int_Tables_number   1
_chemical_formula_structural   Li3Sc2(PO4)3
_chemical_formula_sum   'Li12 Sc8 P12 O48'
_cell_volume   991.45428117
_cell_formula_units_Z   4
loop_
 _symmetry_equiv_pos_site_id
 _symmetry_equiv_pos_as_xyz
  1  'x, y, z'
loop_
 _atom_type_symbol
 _atom_type_oxidation_number
  Li+  1.0
  Sc3+  3.0
  P5+  5.0
  O2-  -2.0
loop_
 _atom_site_type_symbol
 _atom_site_label
 _atom_site_symmetry_multiplicity
 _atom_site_fract_x
 _atom_site_fract_y
 _atom_site_fract_z
 _atom_site_occupancy
  Li+  Li  1  0.83012500  0.79371000  0.25554500  1
  Li+  Li  1  0.16987500  0.29371000  0.24445500  1
  Li+  Li  1  0.16987500  0.20629000  0.74445500  1
  Li+  Li  1  0.83012500  0.70629000  0.75554500  1
  Li+  Li  1  0.22129300  0.91517900  0.29998700  1
  Li+  Li  1  0.77870700  0.41517900  0.20001300  1
  Li+  Li  1  0.77870700  0.08482100  0.70001300  1
  Li+  Li  1  0.22129300  0.58482100  0.79998700  1
  Li+  Li  1  0.39039600  0.76764900  0.17960800  1
  Li+  Li  1  0.60960400  0.26764900  0.32039200  1
  Li+  Li  1  0.60960400  0.23235100  0.82039200  1
  Li+  Li  1  0.39039600  0.73235100  0.67960800  1
  Sc3+  Sc  1  0.85179500  0.96590800  0.10567600  1
  Sc3+  Sc  1  0.14820500  0.46590800  0.39432400  1
  Sc3+  Sc  1  0.14820500  0.03409200  0.89432400  1
  Sc3+  Sc  1  0.85179500  0.53409200  0.60567600  1
  Sc3+  Sc  1  0.64885400  0.95238600  0.39341500  1
  Sc3+  Sc  1  0.35114600  0.45238600  0.10658500  1
  Sc3+  Sc  1  0.35114600  0.04761400  0.60658500  1
  Sc3+  Sc  1  0.64885400  0.54761400  0.89341500  1
  P5+  P  1  0.47169100  0.74554700  0.00961100  1
  P5+  P  1  0.52830900  0.24554700  0.49038900  1
  P5+  P  1  0.52830900  0.25445300  0.99038900  1
  P5+  P  1  0.47169100  0.75445300  0.50961100  1
  P5+  P  1  0.05104800  0.61316000  0.15287100  1
  P5+  P  1  0.94895200  0.11316000  0.34712900  1
  P5+  P  1  0.94895200  0.38684000  0.84712900  1
  P5+  P  1  0.05104800  0.88684000  0.65287100  1
  P5+  P  1  0.74519600  0.59499500  0.34753400  1
  P5+  P  1  0.25480400  0.09499500  0.15246600  1
  P5+  P  1  0.25480400  0.40500500  0.65246600  1
  P5+  P  1  0.74519600  0.90500500  0.84753400  1
  O2-  O  1  0.04515700  0.77371200  0.19002000  1
  O2-  O  1  0.95484300  0.27371200  0.30998000  1
  O2-  O  1  0.95484300  0.22628800  0.80998000  1
  O2-  O  1  0.04515700  0.72628800  0.69002000  1
  O2-  O  1  0.65663500  0.75447600  0.31127200  1
  O2-  O  1  0.34336500  0.25447600  0.18872800  1
  O2-  O  1  0.34336500  0.24552400  0.68872800  1
  O2-  O  1  0.65663500  0.74552400  0.81127200  1
  O2-  O  1  0.33255700  0.62907700  0.44307700  1
  O2-  O  1  0.66744300  0.12907700  0.05692300  1
  O2-  O  1  0.66744300  0.37092300  0.55692300  1
  O2-  O  1  0.33255700  0.87092300  0.94307700  1
  O2-  O  1  0.40952700  0.66142200  0.07196500  1
  O2-  O  1  0.59047300  0.16142200  0.42803500  1
  O2-  O  1  0.59047300  0.33857800  0.92803500  1
  O2-  O  1  0.40952700  0.83857800  0.57196500  1
  O2-  O  1  0.66731000  0.80754000  0.09447900  1
  O2-  O  1  0.33269000  0.30754000  0.40552100  1
  O2-  O  1  0.33269000  0.19246000  0.90552100  1
  O2-  O  1  0.66731000  0.69246000  0.59447900  1
  O2-  O  1  0.47140900  0.86076300  0.42902500  1
  O2-  O  1  0.52859100  0.36076300  0.07097500  1
  O2-  O  1  0.52859100  0.13923700  0.57097500  1
  O2-  O  1  0.47140900  0.63923700  0.92902500  1
  O2-  O  1  0.88320300  0.59027200  0.03535700  1
  O2-  O  1  0.11679700  0.09027200  0.46464300  1
  O2-  O  1  0.11679700  0.40972800  0.96464300  1
  O2-  O  1  0.88320300  0.90972800  0.53535700  1
  O2-  O  1  0.80914100  0.56153300  0.46209700  1
  O2-  O  1  0.19085900  0.06153300  0.03790300  1
  O2-  O  1  0.19085900  0.43846700  0.53790300  1
  O2-  O  1  0.80914100  0.93846700  0.96209700  1
  O2-  O  1  0.95644900  0.99020700  0.27666300  1
  O2-  O  1  0.04355100  0.49020700  0.22333700  1
  O2-  O  1  0.04355100  0.00979300  0.72333700  1
  O2-  O  1  0.95644900  0.50979300  0.77666300  1
  O2-  O  1  0.39001600  0.97152400  0.23076000  1
  O2-  O  1  0.60998400  0.47152400  0.26924000  1
  O2-  O  1  0.60998400  0.02847600  0.76924000  1
  O2-  O  1  0.39001600  0.52847600  0.73076000  1
  O2-  O  1  0.90586300  0.59742800  0.33463100  1
  O2-  O  1  0.09413700  0.09742800  0.16536900  1
  O2-  O  1  0.09413700  0.40257200  0.66536900  1
  O2-  O  1  0.90586300  0.90257200  0.83463100  1
  O2-  O  1  0.23293700  0.59390500  0.16315000  1
  O2-  O  1  0.76706300  0.09390500  0.33685000  1
  O2-  O  1  0.76706300  0.40609500  0.83685000  1
  O2-  O  1  0.23293700  0.90609500  0.66315000  1
