# generated using pymatgen
data_KLi3Si12(SnO15)2
_symmetry_space_group_name_H-M   'P 1'
_cell_length_a   10.15712170
_cell_length_b   10.15712170
_cell_length_c   14.51307200
_cell_angle_alpha   90.00000000
_cell_angle_beta   90.00000000
_cell_angle_gamma   120.00000000
_symmetry_Int_Tables_number   1
_chemical_formula_structural   KLi3Si12(SnO15)2
_chemical_formula_sum   'K2 Li6 Si24 Sn4 O60'
_cell_volume   1296.67546704
_cell_formula_units_Z   2
loop_
 _symmetry_equiv_pos_site_id
 _symmetry_equiv_pos_as_xyz
  1  'x, y, z'
loop_
 _atom_type_symbol
 _atom_type_oxidation_number
  K+  1.0
  Li+  1.0
  Si4+  4.0
  Sn4+  4.0
  O2-  -2.0
loop_
 _atom_site_type_symbol
 _atom_site_label
 _atom_site_symmetry_multiplicity
 _atom_site_fract_x
 _atom_site_fract_y
 _atom_site_fract_z
 _atom_site_occupancy
  K+  K  1  0.00000000  0.00000000  0.25000000  1
  K+  K  1  0.00000000  0.00000000  0.75000000  1
  Li+  Li  1  0.50000000  0.00000000  0.25000000  1
  Li+  Li  1  0.00000000  0.50000000  0.75000000  1
  Li+  Li  1  0.50000000  0.50000000  0.75000000  1
  Li+  Li  1  0.50000000  0.00000000  0.75000000  1
  Li+  Li  1  0.00000000  0.50000000  0.25000000  1
  Li+  Li  1  0.50000000  0.50000000  0.25000000  1
  Si4+  Si  1  0.11828500  0.35612700  0.89125900  1
  Si4+  Si  1  0.64387300  0.76215800  0.89125900  1
  Si4+  Si  1  0.23784200  0.88171500  0.89125900  1
  Si4+  Si  1  0.76215800  0.11828500  0.89125900  1
  Si4+  Si  1  0.35612700  0.11828500  0.60874100  1
  Si4+  Si  1  0.88171500  0.64387300  0.89125900  1
  Si4+  Si  1  0.35612700  0.23784200  0.89125900  1
  Si4+  Si  1  0.23784200  0.35612700  0.60874100  1
  Si4+  Si  1  0.11828500  0.76215800  0.60874100  1
  Si4+  Si  1  0.88171500  0.23784200  0.60874100  1
  Si4+  Si  1  0.76215800  0.64387300  0.60874100  1
  Si4+  Si  1  0.64387300  0.88171500  0.60874100  1
  Si4+  Si  1  0.88171500  0.64387300  0.10874100  1
  Si4+  Si  1  0.35612700  0.23784200  0.10874100  1
  Si4+  Si  1  0.76215800  0.11828500  0.10874100  1
  Si4+  Si  1  0.35612700  0.11828500  0.39125900  1
  Si4+  Si  1  0.64387300  0.88171500  0.39125900  1
  Si4+  Si  1  0.11828500  0.35612700  0.10874100  1
  Si4+  Si  1  0.64387300  0.76215800  0.10874100  1
  Si4+  Si  1  0.76215800  0.64387300  0.39125900  1
  Si4+  Si  1  0.88171500  0.23784200  0.39125900  1
  Si4+  Si  1  0.11828500  0.76215800  0.39125900  1
  Si4+  Si  1  0.23784200  0.35612700  0.39125900  1
  Si4+  Si  1  0.23784200  0.88171500  0.10874100  1
  Sn4+  Sn  1  0.66666667  0.33333333  0.25000000  1
  Sn4+  Sn  1  0.33333333  0.66666667  0.25000000  1
  Sn4+  Sn  1  0.33333333  0.66666667  0.75000000  1
  Sn4+  Sn  1  0.66666667  0.33333333  0.75000000  1
  O2-  O  1  0.27859200  0.05635100  0.13270700  1
  O2-  O  1  0.65652800  0.49871300  0.67271400  1
  O2-  O  1  0.50128700  0.34347200  0.82728600  1
  O2-  O  1  0.84218500  0.34347200  0.67271400  1
  O2-  O  1  0.15781500  0.65652800  0.67271400  1
  O2-  O  1  0.49871300  0.84218500  0.67271400  1
  O2-  O  1  0.50128700  0.15781500  0.67271400  1
  O2-  O  1  0.15781500  0.50128700  0.82728600  1
  O2-  O  1  0.34347200  0.84218500  0.82728600  1
  O2-  O  1  0.65652800  0.15781500  0.82728600  1
  O2-  O  1  0.84218500  0.49871300  0.82728600  1
  O2-  O  1  0.49871300  0.65652800  0.82728600  1
  O2-  O  1  0.65652800  0.49871300  0.32728600  1
  O2-  O  1  0.50128700  0.15781500  0.32728600  1
  O2-  O  1  0.84218500  0.34347200  0.32728600  1
  O2-  O  1  0.15781500  0.65652800  0.32728600  1
  O2-  O  1  0.49871300  0.65652800  0.17271400  1
  O2-  O  1  0.34347200  0.50128700  0.32728600  1
  O2-  O  1  0.49871300  0.84218500  0.32728600  1
  O2-  O  1  0.84218500  0.49871300  0.17271400  1
  O2-  O  1  0.65652800  0.15781500  0.17271400  1
  O2-  O  1  0.34347200  0.84218500  0.17271400  1
  O2-  O  1  0.15781500  0.50128700  0.17271400  1
  O2-  O  1  0.27859200  0.22224100  0.63270700  1
  O2-  O  1  0.05635100  0.27859200  0.63270700  1
  O2-  O  1  0.72140800  0.77775900  0.63270700  1
  O2-  O  1  0.22224100  0.94364900  0.63270700  1
  O2-  O  1  0.77775900  0.05635100  0.63270700  1
  O2-  O  1  0.27859200  0.05635100  0.86729300  1
  O2-  O  1  0.94364900  0.72140800  0.63270700  1
  O2-  O  1  0.40053300  0.26723800  0.00000000  1
  O2-  O  1  0.13329500  0.40053300  0.00000000  1
  O2-  O  1  0.26723800  0.86670500  0.00000000  1
  O2-  O  1  0.73276200  0.13329500  0.00000000  1
  O2-  O  1  0.86670500  0.59946700  0.00000000  1
  O2-  O  1  0.59946700  0.86670500  0.50000000  1
  O2-  O  1  0.26723800  0.40053300  0.50000000  1
  O2-  O  1  0.59946700  0.73276200  0.00000000  1
  O2-  O  1  0.13329500  0.73276200  0.50000000  1
  O2-  O  1  0.86670500  0.26723800  0.50000000  1
  O2-  O  1  0.40053300  0.13329500  0.50000000  1
  O2-  O  1  0.73276200  0.59946700  0.50000000  1
  O2-  O  1  0.34347200  0.50128700  0.67271400  1
  O2-  O  1  0.22224100  0.27859200  0.13270700  1
  O2-  O  1  0.05635100  0.77775900  0.13270700  1
  O2-  O  1  0.94364900  0.22224100  0.13270700  1
  O2-  O  1  0.77775900  0.72140800  0.13270700  1
  O2-  O  1  0.72140800  0.77775900  0.36729300  1
  O2-  O  1  0.05635100  0.27859200  0.36729300  1
  O2-  O  1  0.72140800  0.94364900  0.13270700  1
  O2-  O  1  0.22224100  0.94364900  0.36729300  1
  O2-  O  1  0.77775900  0.05635100  0.36729300  1
  O2-  O  1  0.27859200  0.22224100  0.36729300  1
  O2-  O  1  0.94364900  0.72140800  0.36729300  1
  O2-  O  1  0.72140800  0.94364900  0.86729300  1
  O2-  O  1  0.77775900  0.72140800  0.86729300  1
  O2-  O  1  0.94364900  0.22224100  0.86729300  1
  O2-  O  1  0.05635100  0.77775900  0.86729300  1
  O2-  O  1  0.22224100  0.27859200  0.86729300  1
  O2-  O  1  0.50128700  0.34347200  0.17271400  1
