# generated using pymatgen
data_K3LiMg4(Si2O5)6
_symmetry_space_group_name_H-M   'P 1'
_cell_length_a   10.42400400
_cell_length_b   18.08308600
_cell_length_c   14.03219600
_cell_angle_alpha   90.00000000
_cell_angle_beta   90.00000000
_cell_angle_gamma   90.00000000
_symmetry_Int_Tables_number   1
_chemical_formula_structural   K3LiMg4(Si2O5)6
_chemical_formula_sum   'K12 Li4 Mg16 Si48 O120'
_cell_volume   2645.04313793
_cell_formula_units_Z   4
loop_
 _symmetry_equiv_pos_site_id
 _symmetry_equiv_pos_as_xyz
  1  'x, y, z'
loop_
 _atom_type_symbol
 _atom_type_oxidation_number
  K+  1.0
  Li+  1.0
  Mg2+  2.0
  Si4+  4.0
  O2-  -2.0
loop_
 _atom_site_type_symbol
 _atom_site_label
 _atom_site_symmetry_multiplicity
 _atom_site_fract_x
 _atom_site_fract_y
 _atom_site_fract_z
 _atom_site_occupancy
  K+  K  1  0.00074250  0.33199450  0.49999700  1
  K+  K  1  0.00000000  0.00000000  0.74999500  1
  K+  K  1  0.99925750  0.33199450  0.99999700  1
  K+  K  1  0.50074250  0.16800550  0.99999700  1
  K+  K  1  0.49925750  0.16800550  0.49999700  1
  K+  K  1  0.00000000  0.00000000  0.24999500  1
  K+  K  1  0.50074250  0.83199450  0.49999700  1
  K+  K  1  0.50000000  0.50000000  0.74999500  1
  K+  K  1  0.49925750  0.83199450  0.99999700  1
  K+  K  1  0.00074250  0.66800550  0.99999700  1
  K+  K  1  0.99925750  0.66800550  0.49999700  1
  K+  K  1  0.50000000  0.50000000  0.24999500  1
  Li+  Li  1  0.25000000  0.25000000  0.74993700  1
  Li+  Li  1  0.75000000  0.25000000  0.24993700  1
  Li+  Li  1  0.75000000  0.75000000  0.74993700  1
  Li+  Li  1  0.25000000  0.75000000  0.24993700  1
  Mg2+  Mg  1  0.00847500  0.33037700  0.75003400  1
  Mg2+  Mg  1  0.99152500  0.33037700  0.25003400  1
  Mg2+  Mg  1  0.25000000  0.25000000  0.25001000  1
  Mg2+  Mg  1  0.49152500  0.16962300  0.75003400  1
  Mg2+  Mg  1  0.75000000  0.25000000  0.75001000  1
  Mg2+  Mg  1  0.50847500  0.16962300  0.25003400  1
  Mg2+  Mg  1  0.50000000  0.00000000  0.75008700  1
  Mg2+  Mg  1  0.50000000  0.00000000  0.25008700  1
  Mg2+  Mg  1  0.50847500  0.83037700  0.75003400  1
  Mg2+  Mg  1  0.49152500  0.83037700  0.25003400  1
  Mg2+  Mg  1  0.75000000  0.75000000  0.25001000  1
  Mg2+  Mg  1  0.99152500  0.66962300  0.75003400  1
  Mg2+  Mg  1  0.25000000  0.75000000  0.75001000  1
  Mg2+  Mg  1  0.00847500  0.66962300  0.25003400  1
  Mg2+  Mg  1  0.00000000  0.50000000  0.75008700  1
  Mg2+  Mg  1  0.00000000  0.50000000  0.25008700  1
  Si4+  Si  1  0.78623850  0.44457950  0.38409100  1
  Si4+  Si  1  0.78731450  0.44519350  0.61616800  1
  Si4+  Si  1  0.72822300  0.38264600  0.11670700  1
  Si4+  Si  1  0.72565900  0.38371800  0.88414200  1
  Si4+  Si  1  0.21376150  0.44457950  0.88409100  1
  Si4+  Si  1  0.21268550  0.44519350  0.11616800  1
  Si4+  Si  1  0.27177700  0.38264600  0.61670700  1
  Si4+  Si  1  0.27434100  0.38371800  0.38414200  1
  Si4+  Si  1  0.94003850  0.17049550  0.61572500  1
  Si4+  Si  1  0.93826450  0.17244550  0.38319600  1
  Si4+  Si  1  0.43826450  0.32755450  0.88319600  1
  Si4+  Si  1  0.44003850  0.32950450  0.11572500  1
  Si4+  Si  1  0.06173550  0.17244550  0.88319600  1
  Si4+  Si  1  0.05996150  0.17049550  0.11572500  1
  Si4+  Si  1  0.55996150  0.32950450  0.61572500  1
  Si4+  Si  1  0.56173550  0.32755450  0.38319600  1
  Si4+  Si  1  0.22822300  0.11735400  0.61670700  1
  Si4+  Si  1  0.22565900  0.11628200  0.38414200  1
  Si4+  Si  1  0.28623850  0.05542050  0.88409100  1
  Si4+  Si  1  0.28731450  0.05480650  0.11616800  1
  Si4+  Si  1  0.77177700  0.11735400  0.11670700  1
  Si4+  Si  1  0.77434100  0.11628200  0.88414200  1
  Si4+  Si  1  0.71376150  0.05542050  0.38409100  1
  Si4+  Si  1  0.71268550  0.05480650  0.61616800  1
  Si4+  Si  1  0.28623850  0.94457950  0.38409100  1
  Si4+  Si  1  0.28731450  0.94519350  0.61616800  1
  Si4+  Si  1  0.22822300  0.88264600  0.11670700  1
  Si4+  Si  1  0.22565900  0.88371800  0.88414200  1
  Si4+  Si  1  0.71376150  0.94457950  0.88409100  1
  Si4+  Si  1  0.71268550  0.94519350  0.11616800  1
  Si4+  Si  1  0.77177700  0.88264600  0.61670700  1
  Si4+  Si  1  0.77434100  0.88371800  0.38414200  1
  Si4+  Si  1  0.44003850  0.67049550  0.61572500  1
  Si4+  Si  1  0.43826450  0.67244550  0.38319600  1
  Si4+  Si  1  0.93826450  0.82755450  0.88319600  1
  Si4+  Si  1  0.94003850  0.82950450  0.11572500  1
  Si4+  Si  1  0.56173550  0.67244550  0.88319600  1
  Si4+  Si  1  0.55996150  0.67049550  0.11572500  1
  Si4+  Si  1  0.05996150  0.82950450  0.61572500  1
  Si4+  Si  1  0.06173550  0.82755450  0.38319600  1
  Si4+  Si  1  0.72822300  0.61735400  0.61670700  1
  Si4+  Si  1  0.72565900  0.61628200  0.38414200  1
  Si4+  Si  1  0.78623850  0.55542050  0.88409100  1
  Si4+  Si  1  0.78731450  0.55480650  0.11616800  1
  Si4+  Si  1  0.27177700  0.61735400  0.11670700  1
  Si4+  Si  1  0.27434100  0.61628200  0.88414200  1
  Si4+  Si  1  0.21376150  0.55542050  0.38409100  1
  Si4+  Si  1  0.21268550  0.55480650  0.61616800  1
  O2-  O  1  0.74553150  0.47080150  0.85343200  1
  O2-  O  1  0.74559800  0.47083300  0.14650100  1
  O2-  O  1  0.66668600  0.39221200  0.64724400  1
  O2-  O  1  0.66467800  0.39289500  0.35347000  1
  O2-  O  1  0.80024600  0.43971400  0.50016000  1
  O2-  O  1  0.73876400  0.38018000  0.99999900  1
  O2-  O  1  0.91974100  0.42230300  0.66768500  1
  O2-  O  1  0.91957200  0.42263500  0.33299900  1
  O2-  O  1  0.08042800  0.42263500  0.83299900  1
  O2-  O  1  0.08025900  0.42230300  0.16768500  1
  O2-  O  1  0.83062250  0.32950650  0.16500700  1
  O2-  O  1  0.82631950  0.32914650  0.83244200  1
  O2-  O  1  0.25440200  0.47083300  0.64650100  1
  O2-  O  1  0.25446850  0.47080150  0.35343200  1
  O2-  O  1  0.19975400  0.43971400  0.00016000  1
  O2-  O  1  0.26123600  0.38018000  0.49999900  1
  O2-  O  1  0.33532200  0.39289500  0.85347000  1
  O2-  O  1  0.33331400  0.39221200  0.14724400  1
  O2-  O  1  0.90943050  0.25051650  0.33506900  1
  O2-  O  1  0.90628900  0.24818000  0.66676600  1
  O2-  O  1  0.16937750  0.32950650  0.66500700  1
  O2-  O  1  0.17368050  0.32914650  0.33244200  1
  O2-  O  1  0.42135100  0.36414100  0.64668300  1
  O2-  O  1  0.42120800  0.36276000  0.35265700  1
  O2-  O  1  0.09056950  0.25051650  0.83506900  1
  O2-  O  1  0.09371100  0.24818000  0.16676600  1
  O2-  O  1  0.93973150  0.17866750  0.49981400  1
  O2-  O  1  0.57879200  0.36276000  0.85265700  1
  O2-  O  1  0.57864900  0.36414100  0.14668300  1
  O2-  O  1  0.43973150  0.32133250  0.99981400  1
  O2-  O  1  0.06026850  0.17866750  0.99981400  1
  O2-  O  1  0.92120800  0.13724000  0.85265700  1
  O2-  O  1  0.92135100  0.13585900  0.14668300  1
  O2-  O  1  0.56026850  0.32133250  0.49981400  1
  O2-  O  1  0.40943050  0.24948350  0.83506900  1
  O2-  O  1  0.40628900  0.25182000  0.16676600  1
  O2-  O  1  0.07879200  0.13724000  0.35265700  1
  O2-  O  1  0.07864900  0.13585900  0.64668300  1
  O2-  O  1  0.33062250  0.17049350  0.66500700  1
  O2-  O  1  0.32631950  0.17085350  0.33244200  1
  O2-  O  1  0.59056950  0.24948350  0.33506900  1
  O2-  O  1  0.59371100  0.25182000  0.66676600  1
  O2-  O  1  0.16467800  0.10710500  0.85347000  1
  O2-  O  1  0.16668600  0.10778800  0.14724400  1
  O2-  O  1  0.23876400  0.11982000  0.49999900  1
  O2-  O  1  0.30024600  0.06028600  0.00016000  1
  O2-  O  1  0.24559800  0.02916700  0.64650100  1
  O2-  O  1  0.24553150  0.02919850  0.35343200  1
  O2-  O  1  0.66937750  0.17049350  0.16500700  1
  O2-  O  1  0.67368050  0.17085350  0.83244200  1
  O2-  O  1  0.41957200  0.07736500  0.83299900  1
  O2-  O  1  0.41974100  0.07769700  0.16768500  1
  O2-  O  1  0.58025900  0.07769700  0.66768500  1
  O2-  O  1  0.58042800  0.07736500  0.33299900  1
  O2-  O  1  0.76123600  0.11982000  0.99999900  1
  O2-  O  1  0.69975400  0.06028600  0.50016000  1
  O2-  O  1  0.83331400  0.10778800  0.64724400  1
  O2-  O  1  0.83532200  0.10710500  0.35347000  1
  O2-  O  1  0.75446850  0.02919850  0.85343200  1
  O2-  O  1  0.75440200  0.02916700  0.14650100  1
  O2-  O  1  0.24553150  0.97080150  0.85343200  1
  O2-  O  1  0.24559800  0.97083300  0.14650100  1
  O2-  O  1  0.16668600  0.89221200  0.64724400  1
  O2-  O  1  0.16467800  0.89289500  0.35347000  1
  O2-  O  1  0.30024600  0.93971400  0.50016000  1
  O2-  O  1  0.23876400  0.88018000  0.99999900  1
  O2-  O  1  0.41974100  0.92230300  0.66768500  1
  O2-  O  1  0.41957200  0.92263500  0.33299900  1
  O2-  O  1  0.58042800  0.92263500  0.83299900  1
  O2-  O  1  0.58025900  0.92230300  0.16768500  1
  O2-  O  1  0.33062250  0.82950650  0.16500700  1
  O2-  O  1  0.32631950  0.82914650  0.83244200  1
  O2-  O  1  0.75440200  0.97083300  0.64650100  1
  O2-  O  1  0.75446850  0.97080150  0.35343200  1
  O2-  O  1  0.69975400  0.93971400  0.00016000  1
  O2-  O  1  0.76123600  0.88018000  0.49999900  1
  O2-  O  1  0.83532200  0.89289500  0.85347000  1
  O2-  O  1  0.83331400  0.89221200  0.14724400  1
  O2-  O  1  0.40943050  0.75051650  0.33506900  1
  O2-  O  1  0.40628900  0.74818000  0.66676600  1
  O2-  O  1  0.66937750  0.82950650  0.66500700  1
  O2-  O  1  0.67368050  0.82914650  0.33244200  1
  O2-  O  1  0.92135100  0.86414100  0.64668300  1
  O2-  O  1  0.92120800  0.86276000  0.35265700  1
  O2-  O  1  0.59056950  0.75051650  0.83506900  1
  O2-  O  1  0.59371100  0.74818000  0.16676600  1
  O2-  O  1  0.43973150  0.67866750  0.49981400  1
  O2-  O  1  0.07879200  0.86276000  0.85265700  1
  O2-  O  1  0.07864900  0.86414100  0.14668300  1
  O2-  O  1  0.93973150  0.82133250  0.99981400  1
  O2-  O  1  0.56026850  0.67866750  0.99981400  1
  O2-  O  1  0.42120800  0.63724000  0.85265700  1
  O2-  O  1  0.42135100  0.63585900  0.14668300  1
  O2-  O  1  0.06026850  0.82133250  0.49981400  1
  O2-  O  1  0.90943050  0.74948350  0.83506900  1
  O2-  O  1  0.90628900  0.75182000  0.16676600  1
  O2-  O  1  0.57879200  0.63724000  0.35265700  1
  O2-  O  1  0.57864900  0.63585900  0.64668300  1
  O2-  O  1  0.83062250  0.67049350  0.66500700  1
  O2-  O  1  0.82631950  0.67085350  0.33244200  1
  O2-  O  1  0.09056950  0.74948350  0.33506900  1
  O2-  O  1  0.09371100  0.75182000  0.66676600  1
  O2-  O  1  0.66467800  0.60710500  0.85347000  1
  O2-  O  1  0.66668600  0.60778800  0.14724400  1
  O2-  O  1  0.73876400  0.61982000  0.49999900  1
  O2-  O  1  0.80024600  0.56028600  0.00016000  1
  O2-  O  1  0.74559800  0.52916700  0.64650100  1
  O2-  O  1  0.74553150  0.52919850  0.35343200  1
  O2-  O  1  0.16937750  0.67049350  0.16500700  1
  O2-  O  1  0.17368050  0.67085350  0.83244200  1
  O2-  O  1  0.91957200  0.57736500  0.83299900  1
  O2-  O  1  0.91974100  0.57769700  0.16768500  1
  O2-  O  1  0.08025900  0.57769700  0.66768500  1
  O2-  O  1  0.08042800  0.57736500  0.33299900  1
  O2-  O  1  0.26123600  0.61982000  0.99999900  1
  O2-  O  1  0.19975400  0.56028600  0.50016000  1
  O2-  O  1  0.33331400  0.60778800  0.64724400  1
  O2-  O  1  0.33532200  0.60710500  0.35347000  1
  O2-  O  1  0.25446850  0.52919850  0.85343200  1
  O2-  O  1  0.25440200  0.52916700  0.14650100  1
