# generated using pymatgen
data_LiTa3O8
_symmetry_space_group_name_H-M   'P 1'
_cell_length_a   9.43033875
_cell_length_b   11.57546468
_cell_length_c   5.04681414
_cell_angle_alpha   90.00000000
_cell_angle_beta   90.90794952
_cell_angle_gamma   90.00000000
_symmetry_Int_Tables_number   1
_chemical_formula_structural   LiTa3O8
_chemical_formula_sum   'Li4 Ta12 O32'
_cell_volume   550.84385209
_cell_formula_units_Z   4
loop_
 _symmetry_equiv_pos_site_id
 _symmetry_equiv_pos_as_xyz
  1  'x, y, z'
loop_
 _atom_type_symbol
 _atom_type_oxidation_number
  Li+  1.0
  Ta5+  5.0
  O2-  -2.0
loop_
 _atom_site_type_symbol
 _atom_site_label
 _atom_site_symmetry_multiplicity
 _atom_site_fract_x
 _atom_site_fract_y
 _atom_site_fract_z
 _atom_site_occupancy
  Li+  Li  1  0.50000000  0.65601846  0.75000000  1
  Li+  Li  1  0.50000000  0.34398154  0.25000000  1
  Li+  Li  1  0.00000000  0.15601846  0.75000000  1
  Li+  Li  1  0.00000000  0.84398154  0.25000000  1
  Ta5+  Ta  1  0.50000000  0.16976062  0.75000000  1
  Ta5+  Ta  1  0.50000000  0.83023938  0.25000000  1
  Ta5+  Ta  1  0.24056751  0.91330230  0.74616587  1
  Ta5+  Ta  1  0.75943249  0.91330230  0.75383413  1
  Ta5+  Ta  1  0.75943249  0.08669770  0.25383413  1
  Ta5+  Ta  1  0.24056751  0.08669770  0.24616587  1
  Ta5+  Ta  1  0.00000000  0.66976062  0.75000000  1
  Ta5+  Ta  1  0.00000000  0.33023938  0.25000000  1
  Ta5+  Ta  1  0.74056751  0.41330230  0.74616587  1
  Ta5+  Ta  1  0.25943249  0.41330230  0.75383413  1
  Ta5+  Ta  1  0.25943249  0.58669770  0.25383413  1
  Ta5+  Ta  1  0.74056751  0.58669770  0.24616587  1
  O2-  O  1  0.61626566  0.30317877  0.60330752  1
  O2-  O  1  0.38373434  0.30317877  0.89669248  1
  O2-  O  1  0.38373434  0.69682123  0.39669248  1
  O2-  O  1  0.61626566  0.69682123  0.10330752  1
  O2-  O  1  0.85451670  0.95068914  0.43520321  1
  O2-  O  1  0.14548330  0.95068914  0.06479679  1
  O2-  O  1  0.14548330  0.04931086  0.56479679  1
  O2-  O  1  0.85451670  0.04931086  0.93520321  1
  O2-  O  1  0.38327636  0.17845965  0.42447647  1
  O2-  O  1  0.61672364  0.17845965  0.07552353  1
  O2-  O  1  0.61672364  0.82154035  0.57552353  1
  O2-  O  1  0.38327636  0.82154035  0.92447647  1
  O2-  O  1  0.63286297  0.93658213  0.08186463  1
  O2-  O  1  0.36713703  0.93658213  0.41813537  1
  O2-  O  1  0.36713703  0.06341787  0.91813537  1
  O2-  O  1  0.63286297  0.06341787  0.58186463  1
  O2-  O  1  0.11626566  0.80317877  0.60330752  1
  O2-  O  1  0.88373434  0.80317877  0.89669248  1
  O2-  O  1  0.88373434  0.19682123  0.39669248  1
  O2-  O  1  0.11626566  0.19682123  0.10330752  1
  O2-  O  1  0.35451670  0.45068914  0.43520321  1
  O2-  O  1  0.64548330  0.45068914  0.06479679  1
  O2-  O  1  0.64548330  0.54931086  0.56479679  1
  O2-  O  1  0.35451670  0.54931086  0.93520321  1
  O2-  O  1  0.88327636  0.67845965  0.42447647  1
  O2-  O  1  0.11672364  0.67845965  0.07552353  1
  O2-  O  1  0.11672364  0.32154035  0.57552353  1
  O2-  O  1  0.88327636  0.32154035  0.92447647  1
  O2-  O  1  0.13286297  0.43658213  0.08186463  1
  O2-  O  1  0.86713703  0.43658213  0.41813537  1
  O2-  O  1  0.86713703  0.56341786  0.91813537  1
  O2-  O  1  0.13286297  0.56341786  0.58186463  1
