# generated using pymatgen
data_Li3Bi(BO3)2
_symmetry_space_group_name_H-M   'P 1'
_cell_length_a   8.98539100
_cell_length_b   6.54328700
_cell_length_c   10.29410107
_cell_angle_alpha   90.00000000
_cell_angle_beta   117.27875068
_cell_angle_gamma   90.00000000
_symmetry_Int_Tables_number   1
_chemical_formula_structural   Li3Bi(BO3)2
_chemical_formula_sum   'Li12 Bi4 B8 O24'
_cell_volume   537.92187311
_cell_formula_units_Z   4
loop_
 _symmetry_equiv_pos_site_id
 _symmetry_equiv_pos_as_xyz
  1  'x, y, z'
loop_
 _atom_type_symbol
 _atom_type_oxidation_number
  Li+  1.0
  Bi3+  3.0
  B3+  3.0
  O2-  -2.0
loop_
 _atom_site_type_symbol
 _atom_site_label
 _atom_site_symmetry_multiplicity
 _atom_site_fract_x
 _atom_site_fract_y
 _atom_site_fract_z
 _atom_site_occupancy
  Li+  Li  1  0.39152000  0.75628000  0.02077000  1
  Li+  Li  1  0.29373500  0.06400800  0.83193400  1
  Li+  Li  1  0.60848000  0.25628000  0.47923000  1
  Li+  Li  1  0.15890600  0.28309500  0.95474800  1
  Li+  Li  1  0.29373500  0.43599200  0.33193400  1
  Li+  Li  1  0.84109400  0.78309500  0.54525200  1
  Li+  Li  1  0.15890600  0.21690500  0.45474800  1
  Li+  Li  1  0.70626500  0.56400800  0.66806600  1
  Li+  Li  1  0.84109400  0.71690500  0.04525200  1
  Li+  Li  1  0.39152000  0.74372000  0.52077000  1
  Li+  Li  1  0.70626500  0.93599200  0.16806600  1
  Li+  Li  1  0.60848000  0.24372000  0.97923000  1
  Bi3+  Bi  1  0.18934400  0.52901600  0.69953900  1
  Bi3+  Bi  1  0.18934400  0.97098400  0.19953900  1
  Bi3+  Bi  1  0.81065600  0.02901600  0.80046100  1
  Bi3+  Bi  1  0.81065600  0.47098400  0.30046100  1
  B3+  B  1  0.53912500  0.66443600  0.32471500  1
  B3+  B  1  0.46087500  0.16443600  0.17528500  1
  B3+  B  1  0.95122100  0.16935800  0.60996800  1
  B3+  B  1  0.04877900  0.66935800  0.89003200  1
  B3+  B  1  0.95122100  0.33064200  0.10996800  1
  B3+  B  1  0.04877900  0.83064200  0.39003200  1
  B3+  B  1  0.53912500  0.83556400  0.82471500  1
  B3+  B  1  0.46087500  0.33556400  0.67528500  1
  O2-  O  1  0.61526000  0.20549800  0.18121600  1
  O2-  O  1  0.58039300  0.71168300  0.21266700  1
  O2-  O  1  0.66215200  0.56488000  0.44824200  1
  O2-  O  1  0.33784800  0.06488000  0.05175800  1
  O2-  O  1  0.41960700  0.21168300  0.28733300  1
  O2-  O  1  0.99472400  0.27629400  0.51607100  1
  O2-  O  1  0.20096400  0.56969500  0.93982300  1
  O2-  O  1  0.38474000  0.70549800  0.31878400  1
  O2-  O  1  0.06264200  0.17309500  0.75851000  1
  O2-  O  1  0.93735800  0.67309500  0.74149000  1
  O2-  O  1  0.79903600  0.06969500  0.56017700  1
  O2-  O  1  0.00527600  0.77629400  0.98392900  1
  O2-  O  1  0.99472400  0.22370600  0.01607100  1
  O2-  O  1  0.20096400  0.93030500  0.43982300  1
  O2-  O  1  0.06264200  0.32690500  0.25851000  1
  O2-  O  1  0.93735800  0.82690500  0.24149000  1
  O2-  O  1  0.61526000  0.29450200  0.68121600  1
  O2-  O  1  0.79903600  0.43030500  0.06017700  1
  O2-  O  1  0.00527600  0.72370600  0.48392900  1
  O2-  O  1  0.58039300  0.78831700  0.71266700  1
  O2-  O  1  0.66215200  0.93512000  0.94824200  1
  O2-  O  1  0.33784800  0.43512000  0.55175800  1
  O2-  O  1  0.41960700  0.28831700  0.78733300  1
  O2-  O  1  0.38474000  0.79450200  0.81878400  1
