# generated using pymatgen
data_RbNa3Li12Ti4O16
_symmetry_space_group_name_H-M   'P 1'
_cell_length_a   11.18005855
_cell_length_b   11.18005855
_cell_length_c   6.48159886
_cell_angle_alpha   90.00000000
_cell_angle_beta   90.00000000
_cell_angle_gamma   90.00000000
_symmetry_Int_Tables_number   1
_chemical_formula_structural   RbNa3Li12Ti4O16
_chemical_formula_sum   'Rb2 Na6 Li24 Ti8 O32'
_cell_volume   810.15908294
_cell_formula_units_Z   2
loop_
 _symmetry_equiv_pos_site_id
 _symmetry_equiv_pos_as_xyz
  1  'x, y, z'
loop_
 _atom_type_symbol
 _atom_type_oxidation_number
  Rb+  1.0
  Na+  1.0
  Li+  1.0
  Ti4+  4.0
  O2-  -2.0
loop_
 _atom_site_type_symbol
 _atom_site_label
 _atom_site_symmetry_multiplicity
 _atom_site_fract_x
 _atom_site_fract_y
 _atom_site_fract_z
 _atom_site_occupancy
  Rb+  Rb  1  0.00000000  0.00000000  0.00000000  1
  Rb+  Rb  1  0.50000000  0.50000000  0.50000000  1
  Na+  Na  1  0.00000000  0.00000000  0.50000000  1
  Na+  Na  1  0.50000000  0.00000000  0.75000000  1
  Na+  Na  1  0.50000000  0.00000000  0.25000000  1
  Na+  Na  1  0.50000000  0.50000000  0.00000000  1
  Na+  Na  1  0.00000000  0.50000000  0.25000000  1
  Na+  Na  1  0.00000000  0.50000000  0.75000000  1
  Li+  Li  1  0.41840055  0.77888743  0.50000000  1
  Li+  Li  1  0.40476070  0.27134134  0.74627661  1
  Li+  Li  1  0.40476070  0.27134134  0.25372339  1
  Li+  Li  1  0.27888743  0.08159945  0.00000000  1
  Li+  Li  1  0.77134134  0.09523930  0.24627661  1
  Li+  Li  1  0.77134134  0.09523930  0.75372339  1
  Li+  Li  1  0.22865866  0.90476070  0.24627661  1
  Li+  Li  1  0.22865866  0.90476070  0.75372339  1
  Li+  Li  1  0.72111257  0.91840055  0.00000000  1
  Li+  Li  1  0.59523930  0.72865866  0.25372339  1
  Li+  Li  1  0.59523930  0.72865866  0.74627661  1
  Li+  Li  1  0.58159945  0.22111257  0.50000000  1
  Li+  Li  1  0.91840055  0.27888743  0.00000000  1
  Li+  Li  1  0.90476070  0.77134134  0.24627661  1
  Li+  Li  1  0.90476070  0.77134134  0.75372339  1
  Li+  Li  1  0.77888743  0.58159945  0.50000000  1
  Li+  Li  1  0.27134134  0.59523930  0.74627661  1
  Li+  Li  1  0.27134134  0.59523930  0.25372339  1
  Li+  Li  1  0.72865866  0.40476070  0.74627661  1
  Li+  Li  1  0.72865866  0.40476070  0.25372339  1
  Li+  Li  1  0.22111257  0.41840055  0.50000000  1
  Li+  Li  1  0.09523930  0.22865866  0.75372339  1
  Li+  Li  1  0.09523930  0.22865866  0.24627661  1
  Li+  Li  1  0.08159945  0.72111257  0.00000000  1
  Ti4+  Ti  1  0.58138050  0.22239145  0.00000000  1
  Ti4+  Ti  1  0.27760855  0.08138050  0.50000000  1
  Ti4+  Ti  1  0.72239145  0.91861950  0.50000000  1
  Ti4+  Ti  1  0.41861950  0.77760855  0.00000000  1
  Ti4+  Ti  1  0.08138050  0.72239145  0.50000000  1
  Ti4+  Ti  1  0.77760855  0.58138050  0.00000000  1
  Ti4+  Ti  1  0.22239145  0.41861950  0.00000000  1
  Ti4+  Ti  1  0.91861950  0.27760855  0.50000000  1
  O2-  O  1  0.67800543  0.09087334  0.00000000  1
  O2-  O  1  0.58629548  0.31269816  0.76645076  1
  O2-  O  1  0.58629548  0.31269816  0.23354924  1
  O2-  O  1  0.42769258  0.16822768  0.00000000  1
  O2-  O  1  0.40912666  0.17800543  0.50000000  1
  O2-  O  1  0.33177232  0.92769258  0.50000000  1
  O2-  O  1  0.81269817  0.91370452  0.26645077  1
  O2-  O  1  0.81269817  0.91370452  0.73354924  1
  O2-  O  1  0.18730184  0.08629548  0.73354924  1
  O2-  O  1  0.18730184  0.08629548  0.26645077  1
  O2-  O  1  0.66822768  0.07230742  0.50000000  1
  O2-  O  1  0.59087334  0.82199457  0.50000000  1
  O2-  O  1  0.57230742  0.83177232  0.00000000  1
  O2-  O  1  0.41370452  0.68730183  0.76645076  1
  O2-  O  1  0.41370452  0.68730183  0.23354924  1
  O2-  O  1  0.32199457  0.90912666  0.00000000  1
  O2-  O  1  0.17800543  0.59087334  0.50000000  1
  O2-  O  1  0.08629548  0.81269817  0.26645077  1
  O2-  O  1  0.08629548  0.81269817  0.73354924  1
  O2-  O  1  0.92769258  0.66822768  0.50000000  1
  O2-  O  1  0.90912666  0.67800543  0.00000000  1
  O2-  O  1  0.83177232  0.42769258  0.00000000  1
  O2-  O  1  0.31269817  0.41370452  0.76645077  1
  O2-  O  1  0.31269817  0.41370452  0.23354923  1
  O2-  O  1  0.68730183  0.58629548  0.23354923  1
  O2-  O  1  0.68730183  0.58629548  0.76645077  1
  O2-  O  1  0.16822768  0.57230742  0.00000000  1
  O2-  O  1  0.09087334  0.32199457  0.00000000  1
  O2-  O  1  0.07230742  0.33177232  0.50000000  1
  O2-  O  1  0.91370452  0.18730183  0.26645077  1
  O2-  O  1  0.91370452  0.18730183  0.73354924  1
  O2-  O  1  0.82199457  0.40912666  0.50000000  1
