# generated using pymatgen
data_Li3FeF6
_symmetry_space_group_name_H-M   'P 1'
_cell_length_a   14.20655728
_cell_length_b   8.59633178
_cell_length_c   9.89452400
_cell_angle_alpha   90.00000000
_cell_angle_beta   96.23132697
_cell_angle_gamma   90.00000000
_symmetry_Int_Tables_number   1
_chemical_formula_structural   Li3FeF6
_chemical_formula_sum   'Li36 Fe12 F72'
_cell_volume   1201.22233445
_cell_formula_units_Z   12
loop_
 _symmetry_equiv_pos_site_id
 _symmetry_equiv_pos_as_xyz
  1  'x, y, z'
loop_
 _atom_type_symbol
 _atom_type_oxidation_number
  Li+  1.0
  Fe3+  3.0
  F-  -1.0
loop_
 _atom_site_type_symbol
 _atom_site_label
 _atom_site_symmetry_multiplicity
 _atom_site_fract_x
 _atom_site_fract_y
 _atom_site_fract_z
 _atom_site_occupancy
  Li+  Li  1  0.20244358  0.85666146  0.93306506  1
  Li+  Li  1  0.20244358  0.14333854  0.43306506  1
  Li+  Li  1  0.33000204  0.20069466  0.95328308  1
  Li+  Li  1  0.33000204  0.79930534  0.45328308  1
  Li+  Li  1  0.35454799  0.65281705  0.73010627  1
  Li+  Li  1  0.35454799  0.34718295  0.23010627  1
  Li+  Li  1  0.48295364  0.84550061  0.97479859  1
  Li+  Li  1  0.48295364  0.15449939  0.47479859  1
  Li+  Li  1  0.50000000  0.31597851  0.75000000  1
  Li+  Li  1  0.50000000  0.68402149  0.25000000  1
  Li+  Li  1  0.51704636  0.84550061  0.52520141  1
  Li+  Li  1  0.51704636  0.15449939  0.02520141  1
  Li+  Li  1  0.64545201  0.65281705  0.76989373  1
  Li+  Li  1  0.64545201  0.34718295  0.26989373  1
  Li+  Li  1  0.66999796  0.20069466  0.54671692  1
  Li+  Li  1  0.66999796  0.79930534  0.04671692  1
  Li+  Li  1  0.79755642  0.85666146  0.56693494  1
  Li+  Li  1  0.79755642  0.14333854  0.06693494  1
  Li+  Li  1  0.70244358  0.35666146  0.93306506  1
  Li+  Li  1  0.70244358  0.64333854  0.43306506  1
  Li+  Li  1  0.83000204  0.70069466  0.95328308  1
  Li+  Li  1  0.83000204  0.29930534  0.45328308  1
  Li+  Li  1  0.85454799  0.15281705  0.73010627  1
  Li+  Li  1  0.85454799  0.84718295  0.23010627  1
  Li+  Li  1  0.98295364  0.34550061  0.97479859  1
  Li+  Li  1  0.98295364  0.65449939  0.47479859  1
  Li+  Li  1  0.00000000  0.81597851  0.75000000  1
  Li+  Li  1  0.00000000  0.18402149  0.25000000  1
  Li+  Li  1  0.01704636  0.34550061  0.52520141  1
  Li+  Li  1  0.01704636  0.65449939  0.02520141  1
  Li+  Li  1  0.14545201  0.15281705  0.76989373  1
  Li+  Li  1  0.14545201  0.84718295  0.26989373  1
  Li+  Li  1  0.16999796  0.70069466  0.54671692  1
  Li+  Li  1  0.16999796  0.29930534  0.04671692  1
  Li+  Li  1  0.29755642  0.35666146  0.56693494  1
  Li+  Li  1  0.29755642  0.64333854  0.06693494  1
  Fe3+  Fe  1  0.34070770  0.00314534  0.71103837  1
  Fe3+  Fe  1  0.34070770  0.99685466  0.21103837  1
  Fe3+  Fe  1  0.00000000  0.00000000  0.50000000  1
  Fe3+  Fe  1  0.00000000  0.00000000  0.00000000  1
  Fe3+  Fe  1  0.65929230  0.00314534  0.78896163  1
  Fe3+  Fe  1  0.65929230  0.99685466  0.28896163  1
  Fe3+  Fe  1  0.84070770  0.50314534  0.71103837  1
  Fe3+  Fe  1  0.84070770  0.49685466  0.21103837  1
  Fe3+  Fe  1  0.50000000  0.50000000  0.50000000  1
  Fe3+  Fe  1  0.50000000  0.50000000  0.00000000  1
  Fe3+  Fe  1  0.15929230  0.50314534  0.78896163  1
  Fe3+  Fe  1  0.15929230  0.49685466  0.28896163  1
  F-  F  1  0.07509997  0.99463517  0.67211922  1
  F-  F  1  0.07509997  0.00536483  0.17211922  1
  F-  F  1  0.25142206  0.02362694  0.84974937  1
  F-  F  1  0.25755731  0.15828836  0.61376719  1
  F-  F  1  0.25142206  0.97637306  0.34974937  1
  F-  F  1  0.26765780  0.83549953  0.61813976  1
  F-  F  1  0.25755731  0.84171164  0.11376719  1
  F-  F  1  0.26765780  0.16450047  0.11813976  1
  F-  F  1  0.40490737  0.83863031  0.81298289  1
  F-  F  1  0.41303522  0.16190050  0.81386776  1
  F-  F  1  0.40490737  0.16136969  0.31298289  1
  F-  F  1  0.41303522  0.83809950  0.31386776  1
  F-  F  1  0.41935503  0.99213335  0.56448249  1
  F-  F  1  0.42136868  0.66569007  0.56274958  1
  F-  F  1  0.42616798  0.33152989  0.56854267  1
  F-  F  1  0.41935503  0.00786665  0.06448249  1
  F-  F  1  0.42136868  0.33430993  0.06274958  1
  F-  F  1  0.42616798  0.66847011  0.06854267  1
  F-  F  1  0.57383202  0.33152989  0.93145733  1
  F-  F  1  0.57863132  0.66569007  0.93725042  1
  F-  F  1  0.58064497  0.99213335  0.93551751  1
  F-  F  1  0.57383202  0.66847011  0.43145733  1
  F-  F  1  0.57863132  0.33430993  0.43725042  1
  F-  F  1  0.58064497  0.00786665  0.43551751  1
  F-  F  1  0.58696478  0.16190050  0.68613224  1
  F-  F  1  0.59509263  0.83863031  0.68701711  1
  F-  F  1  0.58696478  0.83809950  0.18613224  1
  F-  F  1  0.59509263  0.16136969  0.18701711  1
  F-  F  1  0.73234220  0.83549953  0.88186024  1
  F-  F  1  0.74244269  0.15828836  0.88623281  1
  F-  F  1  0.73234220  0.16450047  0.38186024  1
  F-  F  1  0.74857794  0.02362694  0.65025063  1
  F-  F  1  0.74244269  0.84171164  0.38623281  1
  F-  F  1  0.74857794  0.97637306  0.15025063  1
  F-  F  1  0.92490003  0.99463517  0.82788078  1
  F-  F  1  0.92490003  0.00536483  0.32788078  1
  F-  F  1  0.57509997  0.49463517  0.67211922  1
  F-  F  1  0.57509997  0.50536483  0.17211922  1
  F-  F  1  0.75142206  0.52362694  0.84974937  1
  F-  F  1  0.75755731  0.65828836  0.61376719  1
  F-  F  1  0.75142206  0.47637306  0.34974937  1
  F-  F  1  0.76765780  0.33549953  0.61813976  1
  F-  F  1  0.75755731  0.34171164  0.11376719  1
  F-  F  1  0.76765780  0.66450048  0.11813976  1
  F-  F  1  0.90490737  0.33863031  0.81298289  1
  F-  F  1  0.91303522  0.66190050  0.81386776  1
  F-  F  1  0.90490737  0.66136969  0.31298289  1
  F-  F  1  0.91303522  0.33809950  0.31386776  1
  F-  F  1  0.91935503  0.49213335  0.56448249  1
  F-  F  1  0.92136868  0.16569007  0.56274958  1
  F-  F  1  0.92616798  0.83152990  0.56854267  1
  F-  F  1  0.91935503  0.50786665  0.06448249  1
  F-  F  1  0.92136868  0.83430993  0.06274958  1
  F-  F  1  0.92616798  0.16847011  0.06854267  1
  F-  F  1  0.07383202  0.83152990  0.93145733  1
  F-  F  1  0.07863132  0.16569007  0.93725042  1
  F-  F  1  0.08064497  0.49213335  0.93551751  1
  F-  F  1  0.07383202  0.16847011  0.43145733  1
  F-  F  1  0.07863132  0.83430993  0.43725042  1
  F-  F  1  0.08064497  0.50786665  0.43551751  1
  F-  F  1  0.08696478  0.66190050  0.68613224  1
  F-  F  1  0.09509263  0.33863031  0.68701711  1
  F-  F  1  0.08696478  0.33809950  0.18613224  1
  F-  F  1  0.09509263  0.66136969  0.18701711  1
  F-  F  1  0.23234220  0.33549953  0.88186024  1
  F-  F  1  0.24244269  0.65828836  0.88623281  1
  F-  F  1  0.23234220  0.66450048  0.38186024  1
  F-  F  1  0.24857794  0.52362694  0.65025063  1
  F-  F  1  0.24244269  0.34171164  0.38623281  1
  F-  F  1  0.24857794  0.47637306  0.15025063  1
  F-  F  1  0.42490003  0.49463517  0.82788078  1
  F-  F  1  0.42490003  0.50536483  0.32788078  1
