# generated using pymatgen
data_LiFeBO3
_symmetry_space_group_name_H-M   'P 1'
_cell_length_a   5.20576590
_cell_length_b   9.05236163
_cell_length_c   10.37197101
_cell_angle_alpha   90.00000000
_cell_angle_beta   91.77158694
_cell_angle_gamma   90.00000000
_symmetry_Int_Tables_number   1
_chemical_formula_structural   LiFeBO3
_chemical_formula_sum   'Li8 Fe8 B8 O24'
_cell_volume   488.54006738
_cell_formula_units_Z   8
loop_
 _symmetry_equiv_pos_site_id
 _symmetry_equiv_pos_as_xyz
  1  'x, y, z'
loop_
 _atom_type_symbol
 _atom_type_oxidation_number
  Li+  1.0
  Fe2+  2.0
  B3+  3.0
  O2-  -2.0
loop_
 _atom_site_type_symbol
 _atom_site_label
 _atom_site_symmetry_multiplicity
 _atom_site_fract_x
 _atom_site_fract_y
 _atom_site_fract_z
 _atom_site_occupancy
  Li+  Li  1  0.83498850  0.50913250  0.33295700  1
  Li+  Li  1  0.33498850  0.99086750  0.83295700  1
  Li+  Li  1  0.15783500  0.50884200  0.58402600  1
  Li+  Li  1  0.65783500  0.99115800  0.08402600  1
  Li+  Li  1  0.33498850  0.00913250  0.33295700  1
  Li+  Li  1  0.83498850  0.49086750  0.83295700  1
  Li+  Li  1  0.65783500  0.00884200  0.58402600  1
  Li+  Li  1  0.15783500  0.49115800  0.08402600  1
  Fe2+  Fe  1  0.33892800  0.65967100  0.86756600  1
  Fe2+  Fe  1  0.83892800  0.84032900  0.36756600  1
  Fe2+  Fe  1  0.16504000  0.83368400  0.11570200  1
  Fe2+  Fe  1  0.66504000  0.66631600  0.61570200  1
  Fe2+  Fe  1  0.83892800  0.15967100  0.86756600  1
  Fe2+  Fe  1  0.33892800  0.34032900  0.36756600  1
  Fe2+  Fe  1  0.66504000  0.33368400  0.11570200  1
  Fe2+  Fe  1  0.16504000  0.16631600  0.61570200  1
  B3+  B  1  0.83484200  0.83167900  0.87349000  1
  B3+  B  1  0.33484200  0.66832100  0.37349000  1
  B3+  B  1  0.16057450  0.83351550  0.62465700  1
  B3+  B  1  0.66057450  0.66648450  0.12465700  1
  B3+  B  1  0.33484200  0.33167900  0.87349000  1
  B3+  B  1  0.83484200  0.16832100  0.37349000  1
  B3+  B  1  0.66057450  0.33351550  0.62465700  1
  B3+  B  1  0.16057450  0.16648450  0.12465700  1
  O2-  O  1  0.90335800  0.84192000  0.58398500  1
  O2-  O  1  0.40335800  0.65808000  0.08398500  1
  O2-  O  1  0.09809650  0.83923350  0.90311100  1
  O2-  O  1  0.59809650  0.66076650  0.40311100  1
  O2-  O  1  0.72138350  0.69933150  0.83428200  1
  O2-  O  1  0.22138350  0.80066850  0.33428200  1
  O2-  O  1  0.27414400  0.69745600  0.65383700  1
  O2-  O  1  0.77414400  0.80254400  0.15383700  1
  O2-  O  1  0.80569050  0.53845250  0.13791300  1
  O2-  O  1  0.30569050  0.96154750  0.63791300  1
  O2-  O  1  0.18469850  0.54219350  0.38656400  1
  O2-  O  1  0.68469850  0.95780650  0.88656400  1
  O2-  O  1  0.40335800  0.34192000  0.58398500  1
  O2-  O  1  0.90335800  0.15808000  0.08398500  1
  O2-  O  1  0.59809650  0.33923350  0.90311100  1
  O2-  O  1  0.09809650  0.16076650  0.40311100  1
  O2-  O  1  0.22138350  0.19933150  0.83428200  1
  O2-  O  1  0.72138350  0.30066850  0.33428200  1
  O2-  O  1  0.77414400  0.19745600  0.65383700  1
  O2-  O  1  0.27414400  0.30254400  0.15383700  1
  O2-  O  1  0.30569050  0.03845250  0.13791300  1
  O2-  O  1  0.80569050  0.46154750  0.63791300  1
  O2-  O  1  0.68469850  0.04219350  0.38656400  1
  O2-  O  1  0.18469850  0.45780650  0.88656400  1
