# generated using pymatgen
data_LiInP2O7
_symmetry_space_group_name_H-M   'P 1'
_cell_length_a   4.99270200
_cell_length_b   8.61293800
_cell_length_c   7.14919273
_cell_angle_alpha   90.00000000
_cell_angle_beta   109.14855501
_cell_angle_gamma   90.00000000
_symmetry_Int_Tables_number   1
_chemical_formula_structural   LiInP2O7
_chemical_formula_sum   'Li2 In2 P4 O14'
_cell_volume   290.41876892
_cell_formula_units_Z   2
loop_
 _symmetry_equiv_pos_site_id
 _symmetry_equiv_pos_as_xyz
  1  'x, y, z'
loop_
 _atom_type_symbol
 _atom_type_oxidation_number
  Li+  1.0
  In3+  3.0
  P5+  5.0
  O2-  -2.0
loop_
 _atom_site_type_symbol
 _atom_site_label
 _atom_site_symmetry_multiplicity
 _atom_site_fract_x
 _atom_site_fract_y
 _atom_site_fract_z
 _atom_site_occupancy
  Li+  Li  1  0.19089000  0.60879100  0.66825400  1
  Li+  Li  1  0.80911000  0.10879100  0.33174600  1
  In3+  In  1  0.78568300  0.75162400  0.26813500  1
  In3+  In  1  0.21431700  0.25162400  0.73186500  1
  P5+  P  1  0.39970300  0.93296200  0.53109600  1
  P5+  P  1  0.60029700  0.43296200  0.46890400  1
  P5+  P  1  0.21074900  0.53918500  0.07925400  1
  P5+  P  1  0.78925100  0.03918500  0.92074600  1
  O2-  O  1  0.20674300  0.78924500  0.49594700  1
  O2-  O  1  0.79325700  0.28924500  0.50405300  1
  O2-  O  1  0.76781300  0.58582400  0.49620500  1
  O2-  O  1  0.23218700  0.08582400  0.50379500  1
  O2-  O  1  0.58885600  0.91660500  0.76246500  1
  O2-  O  1  0.41114400  0.41660500  0.23753500  1
  O2-  O  1  0.05399900  0.06818200  0.86560300  1
  O2-  O  1  0.94600100  0.56818200  0.13439700  1
  O2-  O  1  0.14226600  0.45644800  0.87899100  1
  O2-  O  1  0.85773400  0.95644800  0.12100900  1
  O2-  O  1  0.62270800  0.18799500  0.92354600  1
  O2-  O  1  0.37729200  0.68799500  0.07645400  1
  O2-  O  1  0.39836300  0.43343900  0.59066500  1
  O2-  O  1  0.60163700  0.93343900  0.40933500  1
