# generated using pymatgen
data_KLi6TaO6
_symmetry_space_group_name_H-M   'P 1'
_cell_length_a   8.31668348
_cell_length_b   8.31668348
_cell_length_c   7.29009519
_cell_angle_alpha   90.00000000
_cell_angle_beta   90.00000000
_cell_angle_gamma   120.00000000
_symmetry_Int_Tables_number   1
_chemical_formula_structural   KLi6TaO6
_chemical_formula_sum   'K3 Li18 Ta3 O18'
_cell_volume   436.68088020
_cell_formula_units_Z   3
loop_
 _symmetry_equiv_pos_site_id
 _symmetry_equiv_pos_as_xyz
  1  'x, y, z'
loop_
 _atom_type_symbol
 _atom_type_oxidation_number
  K+  1.0
  Li+  1.0
  Ta5+  5.0
  O2-  -2.0
loop_
 _atom_site_type_symbol
 _atom_site_label
 _atom_site_symmetry_multiplicity
 _atom_site_fract_x
 _atom_site_fract_y
 _atom_site_fract_z
 _atom_site_occupancy
  K+  K  1  0.00000000  0.00000000  0.50000000  1
  K+  K  1  0.66666667  0.33333333  0.83333333  1
  K+  K  1  0.33333333  0.66666667  0.16666667  1
  Li+  Li  1  0.01014967  0.33333333  0.33333333  1
  Li+  Li  1  0.66666667  0.67681633  0.33333333  1
  Li+  Li  1  0.01014967  0.67681633  0.33333333  1
  Li+  Li  1  0.66666667  0.98985033  0.33333333  1
  Li+  Li  1  0.32318367  0.33333333  0.33333333  1
  Li+  Li  1  0.32318367  0.98985033  0.33333333  1
  Li+  Li  1  0.67681633  0.66666667  0.66666667  1
  Li+  Li  1  0.33333333  0.01014967  0.66666667  1
  Li+  Li  1  0.67681633  0.01014967  0.66666667  1
  Li+  Li  1  0.33333333  0.32318367  0.66666667  1
  Li+  Li  1  0.98985033  0.66666667  0.66666667  1
  Li+  Li  1  0.98985033  0.32318367  0.66666667  1
  Li+  Li  1  0.34348300  0.00000000  0.00000000  1
  Li+  Li  1  0.00000000  0.34348300  0.00000000  1
  Li+  Li  1  0.34348300  0.34348300  0.00000000  1
  Li+  Li  1  0.00000000  0.65651700  0.00000000  1
  Li+  Li  1  0.65651700  0.00000000  0.00000000  1
  Li+  Li  1  0.65651700  0.65651700  0.00000000  1
  Ta5+  Ta  1  0.00000000  0.00000000  0.00000000  1
  Ta5+  Ta  1  0.66666667  0.33333333  0.33333333  1
  Ta5+  Ta  1  0.33333333  0.66666667  0.66666667  1
  O2-  O  1  0.78463867  0.56927733  0.48639833  1
  O2-  O  1  0.78463867  0.21536133  0.48639833  1
  O2-  O  1  0.21536133  0.43072267  0.51360167  1
  O2-  O  1  0.21536133  0.78463867  0.51360167  1
  O2-  O  1  0.56927733  0.78463867  0.51360167  1
  O2-  O  1  0.43072267  0.21536133  0.48639833  1
  O2-  O  1  0.45130533  0.90261067  0.81973167  1
  O2-  O  1  0.45130533  0.54869467  0.81973167  1
  O2-  O  1  0.88202800  0.76405600  0.84693500  1
  O2-  O  1  0.88202800  0.11797200  0.84693500  1
  O2-  O  1  0.23594400  0.11797200  0.84693500  1
  O2-  O  1  0.09738933  0.54869467  0.81973167  1
  O2-  O  1  0.11797200  0.23594400  0.15306500  1
  O2-  O  1  0.11797200  0.88202800  0.15306500  1
  O2-  O  1  0.54869467  0.09738933  0.18026833  1
  O2-  O  1  0.54869467  0.45130533  0.18026833  1
  O2-  O  1  0.90261067  0.45130533  0.18026833  1
  O2-  O  1  0.76405600  0.88202800  0.15306500  1
