# generated using pymatgen
data_LiPF6
_symmetry_space_group_name_H-M   'P 1'
_cell_length_a   4.80252604
_cell_length_b   4.80252604
_cell_length_c   12.46132420
_cell_angle_alpha   90.00000000
_cell_angle_beta   90.00000000
_cell_angle_gamma   120.00000000
_symmetry_Int_Tables_number   1
_chemical_formula_structural   LiPF6
_chemical_formula_sum   'Li3 P3 F18'
_cell_volume   248.90537982
_cell_formula_units_Z   3
loop_
 _symmetry_equiv_pos_site_id
 _symmetry_equiv_pos_as_xyz
  1  'x, y, z'
loop_
 _atom_type_symbol
 _atom_type_oxidation_number
  Li+  1.0
  P5+  5.0
  F-  -1.0
loop_
 _atom_site_type_symbol
 _atom_site_label
 _atom_site_symmetry_multiplicity
 _atom_site_fract_x
 _atom_site_fract_y
 _atom_site_fract_z
 _atom_site_occupancy
  Li+  Li  1  0.33333333  0.66666667  0.16666667  1
  Li+  Li  1  1.00000000  0.00000000  0.50000000  1
  Li+  Li  1  0.66666667  0.33333333  0.83333333  1
  P5+  P  1  0.00000000  0.00000000  0.00000000  1
  P5+  P  1  0.66666667  0.33333333  0.33333333  1
  P5+  P  1  0.33333333  0.66666667  0.66666667  1
  F-  F  1  0.41537941  0.03990450  0.25853630  1
  F-  F  1  0.62452510  0.58462059  0.25853630  1
  F-  F  1  0.96009550  0.37547490  0.25853630  1
  F-  F  1  0.04214157  0.74871274  0.07479703  1
  F-  F  1  0.70657117  0.95785843  0.07479703  1
  F-  F  1  0.25128726  0.29342883  0.07479703  1
  F-  F  1  0.08204607  0.37323784  0.59186964  1
  F-  F  1  0.29119176  0.91795393  0.59186964  1
  F-  F  1  0.62676216  0.70880824  0.59186964  1
  F-  F  1  0.70880824  0.08204607  0.40813036  1
  F-  F  1  0.37323784  0.29119176  0.40813036  1
  F-  F  1  0.91795393  0.62676216  0.40813036  1
  F-  F  1  0.74871274  0.70657117  0.92520297  1
  F-  F  1  0.95785843  0.25128726  0.92520297  1
  F-  F  1  0.29342883  0.04214157  0.92520297  1
  F-  F  1  0.37547490  0.41537941  0.74146370  1
  F-  F  1  0.03990450  0.62452510  0.74146370  1
  F-  F  1  0.58462059  0.96009550  0.74146370  1
