# generated using pymatgen
data_SrLi2(SiN2)2
_symmetry_space_group_name_H-M   'P 1'
_cell_length_a   10.70433669
_cell_length_b   10.70433669
_cell_length_c   10.70433669
_cell_angle_alpha   90.00000000
_cell_angle_beta   90.00000000
_cell_angle_gamma   90.00000000
_symmetry_Int_Tables_number   1
_chemical_formula_structural   SrLi2(SiN2)2
_chemical_formula_sum   'Sr12 Li24 Si24 N48'
_cell_volume   1226.53312670
_cell_formula_units_Z   12
loop_
 _symmetry_equiv_pos_site_id
 _symmetry_equiv_pos_as_xyz
  1  'x, y, z'
loop_
 _atom_type_symbol
 _atom_type_oxidation_number
  Sr2+  2.0
  Li+  1.0
  Si4+  4.0
  N3-  -3.0
loop_
 _atom_site_type_symbol
 _atom_site_label
 _atom_site_symmetry_multiplicity
 _atom_site_fract_x
 _atom_site_fract_y
 _atom_site_fract_z
 _atom_site_occupancy
  Sr2+  Sr0  1  0.50000000  0.00000000  0.00000000  1
  Sr2+  Sr1  1  0.00000000  0.00000000  0.50000000  1
  Sr2+  Sr2  1  0.00000000  0.50000000  0.00000000  1
  Sr2+  Sr3  1  0.50000000  0.50000000  0.50000000  1
  Sr2+  Sr4  1  0.21839281  0.21839281  0.21839281  1
  Sr2+  Sr5  1  0.28160719  0.78160719  0.71839281  1
  Sr2+  Sr6  1  0.71839281  0.28160719  0.78160719  1
  Sr2+  Sr7  1  0.78160719  0.71839281  0.28160719  1
  Sr2+  Sr8  1  0.78160719  0.78160719  0.78160719  1
  Sr2+  Sr9  1  0.71839281  0.21839281  0.28160719  1
  Sr2+  Sr10  1  0.28160719  0.71839281  0.21839281  1
  Sr2+  Sr11  1  0.21839281  0.28160719  0.71839281  1
  Li+  Li12  1  0.23022168  0.97411171  0.10842750  1
  Li+  Li13  1  0.26977832  0.02588829  0.60842750  1
  Li+  Li14  1  0.73022168  0.52588829  0.89157250  1
  Li+  Li15  1  0.76977832  0.47411171  0.39157250  1
  Li+  Li16  1  0.10842750  0.23022168  0.97411171  1
  Li+  Li17  1  0.97411171  0.10842750  0.23022168  1
  Li+  Li18  1  0.39157250  0.76977832  0.47411171  1
  Li+  Li19  1  0.02588829  0.60842750  0.26977832  1
  Li+  Li20  1  0.60842750  0.26977832  0.02588829  1
  Li+  Li21  1  0.52588829  0.89157250  0.73022168  1
  Li+  Li22  1  0.89157250  0.73022168  0.52588829  1
  Li+  Li23  1  0.47411171  0.39157250  0.76977832  1
  Li+  Li24  1  0.76977832  0.02588829  0.89157250  1
  Li+  Li25  1  0.73022168  0.97411171  0.39157250  1
  Li+  Li26  1  0.26977832  0.47411171  0.10842750  1
  Li+  Li27  1  0.23022168  0.52588829  0.60842750  1
  Li+  Li28  1  0.89157250  0.76977832  0.02588829  1
  Li+  Li29  1  0.02588829  0.89157250  0.76977832  1
  Li+  Li30  1  0.60842750  0.23022168  0.52588829  1
  Li+  Li31  1  0.97411171  0.39157250  0.73022168  1
  Li+  Li32  1  0.39157250  0.73022168  0.97411171  1
  Li+  Li33  1  0.47411171  0.10842750  0.26977832  1
  Li+  Li34  1  0.10842750  0.26977832  0.47411171  1
  Li+  Li35  1  0.52588829  0.60842750  0.23022168  1
  Si4+  Si36  1  0.47942016  0.37045789  0.24311438  1
  Si4+  Si37  1  0.02057984  0.62954211  0.74311438  1
  Si4+  Si38  1  0.97942016  0.12954211  0.75688562  1
  Si4+  Si39  1  0.52057984  0.87045789  0.25688562  1
  Si4+  Si40  1  0.24311438  0.47942016  0.37045789  1
  Si4+  Si41  1  0.37045789  0.24311438  0.47942016  1
  Si4+  Si42  1  0.25688562  0.52057984  0.87045789  1
  Si4+  Si43  1  0.62954211  0.74311438  0.02057984  1
  Si4+  Si44  1  0.74311438  0.02057984  0.62954211  1
  Si4+  Si45  1  0.12954211  0.75688562  0.97942016  1
  Si4+  Si46  1  0.75688562  0.97942016  0.12954211  1
  Si4+  Si47  1  0.87045789  0.25688562  0.52057984  1
  Si4+  Si48  1  0.52057984  0.62954211  0.75688562  1
  Si4+  Si49  1  0.97942016  0.37045789  0.25688562  1
  Si4+  Si50  1  0.02057984  0.87045789  0.24311438  1
  Si4+  Si51  1  0.47942016  0.12954211  0.74311438  1
  Si4+  Si52  1  0.75688562  0.52057984  0.62954211  1
  Si4+  Si53  1  0.62954211  0.75688562  0.52057984  1
  Si4+  Si54  1  0.74311438  0.47942016  0.12954211  1
  Si4+  Si55  1  0.37045789  0.25688562  0.97942016  1
  Si4+  Si56  1  0.25688562  0.97942016  0.37045789  1
  Si4+  Si57  1  0.87045789  0.24311438  0.02057984  1
  Si4+  Si58  1  0.24311438  0.02057984  0.87045789  1
  Si4+  Si59  1  0.12954211  0.74311438  0.47942016  1
  N3-  N60  1  0.27167251  0.12528970  0.99105861  1
  N3-  N61  1  0.22832749  0.87471030  0.49105861  1
  N3-  N62  1  0.77167251  0.37471030  0.00894139  1
  N3-  N63  1  0.72832749  0.62528970  0.50894139  1
  N3-  N64  1  0.99105861  0.27167251  0.12528970  1
  N3-  N65  1  0.12528970  0.99105861  0.27167251  1
  N3-  N66  1  0.50894139  0.72832749  0.62528970  1
  N3-  N67  1  0.87471030  0.49105861  0.22832749  1
  N3-  N68  1  0.49105861  0.22832749  0.87471030  1
  N3-  N69  1  0.37471030  0.00894139  0.77167251  1
  N3-  N70  1  0.00894139  0.77167251  0.37471030  1
  N3-  N71  1  0.62528970  0.50894139  0.72832749  1
  N3-  N72  1  0.72832749  0.87471030  0.00894139  1
  N3-  N73  1  0.77167251  0.12528970  0.50894139  1
  N3-  N74  1  0.22832749  0.62528970  0.99105861  1
  N3-  N75  1  0.27167251  0.37471030  0.49105861  1
  N3-  N76  1  0.00894139  0.72832749  0.87471030  1
  N3-  N77  1  0.87471030  0.00894139  0.72832749  1
  N3-  N78  1  0.49105861  0.27167251  0.37471030  1
  N3-  N79  1  0.12528970  0.50894139  0.77167251  1
  N3-  N80  1  0.50894139  0.77167251  0.12528970  1
  N3-  N81  1  0.62528970  0.99105861  0.22832749  1
  N3-  N82  1  0.99105861  0.22832749  0.62528970  1
  N3-  N83  1  0.37471030  0.49105861  0.27167251  1
  N3-  N84  1  0.26798979  0.12414259  0.44284451  1
  N3-  N85  1  0.23201021  0.87585741  0.94284451  1
  N3-  N86  1  0.76798979  0.37585741  0.55715549  1
  N3-  N87  1  0.73201021  0.62414259  0.05715549  1
  N3-  N88  1  0.44284451  0.26798979  0.12414259  1
  N3-  N89  1  0.12414259  0.44284451  0.26798979  1
  N3-  N90  1  0.05715549  0.73201021  0.62414259  1
  N3-  N91  1  0.87585741  0.94284451  0.23201021  1
  N3-  N92  1  0.94284451  0.23201021  0.87585741  1
  N3-  N93  1  0.37585741  0.55715549  0.76798979  1
  N3-  N94  1  0.55715549  0.76798979  0.37585741  1
  N3-  N95  1  0.62414259  0.05715549  0.73201021  1
  N3-  N96  1  0.73201021  0.87585741  0.55715549  1
  N3-  N97  1  0.76798979  0.12414259  0.05715549  1
  N3-  N98  1  0.23201021  0.62414259  0.44284451  1
  N3-  N99  1  0.26798979  0.37585741  0.94284451  1
  N3-  N100  1  0.55715549  0.73201021  0.87585741  1
  N3-  N101  1  0.87585741  0.55715549  0.73201021  1
  N3-  N102  1  0.94284451  0.26798979  0.37585741  1
  N3-  N103  1  0.12414259  0.05715549  0.76798979  1
  N3-  N104  1  0.05715549  0.76798979  0.12414259  1
  N3-  N105  1  0.62414259  0.44284451  0.23201021  1
  N3-  N106  1  0.44284451  0.23201021  0.62414259  1
  N3-  N107  1  0.37585741  0.94284451  0.26798979  1
