# generated using pymatgen
data_Li2InIr
_symmetry_space_group_name_H-M   'P 1'
_cell_length_a   4.43131762
_cell_length_b   4.43131746
_cell_length_c   4.43131791
_cell_angle_alpha   60.00000416
_cell_angle_beta   60.00000538
_cell_angle_gamma   60.00001543
_symmetry_Int_Tables_number   1
_chemical_formula_structural   Li2InIr
_chemical_formula_sum   'Li2 In1 Ir1'
_cell_volume   61.52954958
_cell_formula_units_Z   1
loop_
 _symmetry_equiv_pos_site_id
 _symmetry_equiv_pos_as_xyz
  1  'x, y, z'
loop_
 _atom_site_type_symbol
 _atom_site_label
 _atom_site_symmetry_multiplicity
 _atom_site_fract_x
 _atom_site_fract_y
 _atom_site_fract_z
 _atom_site_occupancy
  Li  Li0  1  0.50000000  0.50000000  0.50000000  1
  Li  Li1  1  0.25000000  0.25000000  0.25000000  1
  In  In2  1  0.75000000  0.75000000  0.75000000  1
  Ir  Ir3  1  -0.00000000  -0.00000000  -0.00000000  1
