# generated using pymatgen
data_Li15Au4
_symmetry_space_group_name_H-M   'P 1'
_cell_length_a   9.26747131
_cell_length_b   9.26747167
_cell_length_c   9.26747222
_cell_angle_alpha   109.47122186
_cell_angle_beta   109.47122264
_cell_angle_gamma   109.47121470
_symmetry_Int_Tables_number   1
_chemical_formula_structural   Li15Au4
_chemical_formula_sum   'Li30 Au8'
_cell_volume   612.71982749
_cell_formula_units_Z   2
loop_
 _symmetry_equiv_pos_site_id
 _symmetry_equiv_pos_as_xyz
  1  'x, y, z'
loop_
 _atom_site_type_symbol
 _atom_site_label
 _atom_site_symmetry_multiplicity
 _atom_site_fract_x
 _atom_site_fract_y
 _atom_site_fract_z
 _atom_site_occupancy
  Li  Li0  1  0.96553394  0.38586032  0.65944681  1
  Li  Li1  1  0.69391288  0.03446606  0.92032538  1
  Li  Li2  1  0.92032538  0.69391288  0.03446606  1
  Li  Li3  1  0.12500000  0.75000000  0.87500000  1
  Li  Li4  1  0.88585932  0.46553394  0.15944681  1
  Li  Li5  1  0.27358649  0.11413968  0.07967462  1
  Li  Li6  1  0.19391288  0.42032538  0.53446606  1
  Li  Li7  1  0.77358649  0.57967462  0.61414068  1
  Li  Li8  1  0.61414068  0.77358649  0.57967462  1
  Li  Li9  1  0.42032538  0.53446606  0.19391288  1
  Li  Li10  1  0.80608712  0.72641351  0.34055319  1
  Li  Li11  1  0.46553394  0.15944681  0.88585932  1
  Li  Li12  1  0.30608712  0.84055319  0.22641351  1
  Li  Li13  1  0.11413968  0.07967462  0.27358649  1
  Li  Li14  1  0.53446606  0.19391288  0.42032538  1
  Li  Li15  1  0.62500000  0.37500000  0.25000000  1
  Li  Li16  1  0.65944681  0.96553394  0.38586032  1
  Li  Li17  1  0.87500000  0.12500000  0.75000000  1
  Li  Li18  1  0.57967462  0.61414068  0.77358649  1
  Li  Li19  1  0.38586032  0.65944681  0.96553394  1
  Li  Li20  1  0.72641351  0.34055319  0.80608712  1
  Li  Li21  1  0.07967462  0.27358649  0.11413968  1
  Li  Li22  1  0.34055319  0.80608712  0.72641351  1
  Li  Li23  1  0.84055319  0.22641351  0.30608712  1
  Li  Li24  1  0.03446606  0.92032538  0.69391288  1
  Li  Li25  1  0.15944681  0.88585932  0.46553394  1
  Li  Li26  1  0.75000000  0.87500000  0.12500000  1
  Li  Li27  1  0.22641351  0.30608712  0.84055319  1
  Li  Li28  1  0.37500000  0.25000000  0.62500000  1
  Li  Li29  1  0.25000000  0.62500000  0.37500000  1
  Au  Au30  1  0.50000000  -0.00000000  0.09014116  1
  Au  Au31  1  0.90985884  0.90985884  0.90985884  1
  Au  Au32  1  0.40985884  0.40985884  0.40985884  1
  Au  Au33  1  0.00000000  0.09014116  0.50000000  1
  Au  Au34  1  0.09014116  0.50000000  -0.00000000  1
  Au  Au35  1  0.59014116  0.50000000  -0.00000000  1
  Au  Au36  1  0.50000000  -0.00000000  0.59014116  1
  Au  Au37  1  0.00000000  0.59014116  0.50000000  1
