# generated using pymatgen
data_Li(CuP)2
_symmetry_space_group_name_H-M   'P 1'
_cell_length_a   3.85082434
_cell_length_b   3.85082445
_cell_length_c   5.46002359
_cell_angle_alpha   110.64877214
_cell_angle_beta   110.64876484
_cell_angle_gamma   89.99999766
_symmetry_Int_Tables_number   1
_chemical_formula_structural   Li(CuP)2
_chemical_formula_sum   'Li1 Cu2 P2'
_cell_volume   70.17888758
_cell_formula_units_Z   1
loop_
 _symmetry_equiv_pos_site_id
 _symmetry_equiv_pos_as_xyz
  1  'x, y, z'
loop_
 _atom_site_type_symbol
 _atom_site_label
 _atom_site_symmetry_multiplicity
 _atom_site_fract_x
 _atom_site_fract_y
 _atom_site_fract_z
 _atom_site_occupancy
  Li  Li0  1  0.00000000  0.00000000  0.00000000  1
  Cu  Cu1  1  0.25000000  0.75000000  0.50000000  1
  Cu  Cu2  1  0.75000000  0.25000000  0.50000000  1
  P  P3  1  0.61266032  0.61266032  0.22532163  1
  P  P4  1  0.38733968  0.38733968  0.77467837  1
